163751
     RDKit          3D

 38 40  0  0  0  0  0  0  0  0999 V2000
   -0.0644    1.4779   -2.7727 O   0  0  0  0  0  0  0  0  0  0  0  0
    0.2923    0.3220   -1.8773 S   0  0  0  0  0  0  0  0  0  0  0  0
    0.5726   -0.8815   -2.7331 O   0  0  0  0  0  0  0  0  0  0  0  0
    1.7512    0.6891   -0.9352 C   0  0  0  0  0  0  0  0  0  0  0  0
    2.4067    1.9110   -1.1634 C   0  0  0  0  0  0  0  0  0  0  0  0
    3.5442    2.2585   -0.4376 C   0  0  0  0  0  0  0  0  0  0  0  0
    4.0501    1.3945    0.5320 C   0  0  0  0  0  0  0  0  0  0  0  0
    3.4191    0.1681    0.7797 C   0  0  0  0  0  0  0  0  0  0  0  0
    3.9259   -0.7022    1.7555 C   0  0  0  0  0  0  0  0  0  0  0  0
    3.3134   -1.8888    1.9966 N   0  0  0  0  0  0  0  0  0  0  0  0
    2.2066   -2.2733    1.3115 C   0  0  0  0  0  0  0  0  0  0  0  0
    1.6640   -1.4448    0.3280 C   0  0  0  0  0  0  0  0  0  0  0  0
    2.2621   -0.2004    0.0466 C   0  0  0  0  0  0  0  0  0  0  0  0
   -1.0469   -0.0028   -0.8024 N   0  0  0  0  0  0  0  0  0  0  0  0
   -1.3477    1.2100   -0.0128 C   0  0  0  0  0  0  0  0  0  0  0  0
   -2.0892    0.8702    1.2849 C   0  0  0  0  0  0  0  0  0  0  0  0
   -3.3677    0.0484    1.0607 C   0  0  0  0  0  0  0  0  0  0  0  0
   -3.0588   -1.3296    0.6348 N   0  0  0  0  0  0  0  0  0  0  0  0
   -3.0380   -1.5052   -0.8270 C   0  0  0  0  0  0  0  0  0  0  0  0
   -2.2270   -0.4369   -1.5821 C   0  0  0  0  0  0  0  0  0  0  0  0
    2.0348    2.6046   -1.9064 H   0  0  0  0  0  0  0  0  0  0  0  0
    4.0338    3.2049   -0.6242 H   0  0  0  0  0  0  0  0  0  0  0  0
    4.9338    1.6848    1.0855 H   0  0  0  0  0  0  0  0  0  0  0  0
    4.8078   -0.4411    2.3266 H   0  0  0  0  0  0  0  0  0  0  0  0
    1.7470   -3.2277    1.5299 H   0  0  0  0  0  0  0  0  0  0  0  0
    0.7883   -1.7936   -0.2001 H   0  0  0  0  0  0  0  0  0  0  0  0
   -0.4077    1.7193    0.2933 H   0  0  0  0  0  0  0  0  0  0  0  0
   -1.9288    1.9558   -0.6013 H   0  0  0  0  0  0  0  0  0  0  0  0
   -1.4040    0.3228    1.9702 H   0  0  0  0  0  0  0  0  0  0  0  0
   -2.3577    1.8216    1.7945 H   0  0  0  0  0  0  0  0  0  0  0  0
   -3.9152    0.0136    2.0288 H   0  0  0  0  0  0  0  0  0  0  0  0
   -4.0423    0.5610    0.3400 H   0  0  0  0  0  0  0  0  0  0  0  0
   -3.7975   -1.9657    1.0158 H   0  0  0  0  0  0  0  0  0  0  0  0
   -2.1499   -1.6571    1.0390 H   0  0  0  0  0  0  0  0  0  0  0  0
   -2.6024   -2.5046   -1.0570 H   0  0  0  0  0  0  0  0  0  0  0  0
   -4.0779   -1.5127   -1.2234 H   0  0  0  0  0  0  0  0  0  0  0  0
   -1.9378   -0.8857   -2.5558 H   0  0  0  0  0  0  0  0  0  0  0  0
   -2.8928    0.4159   -1.8422 H   0  0  0  0  0  0  0  0  0  0  0  0
  1  2  2  0
  2  3  2  0
  2  4  1  0
  4  5  2  0
  5  6  1  0
  6  7  2  0
  7  8  1  0
  8  9  2  0
  9 10  1  0
 10 11  2  0
 11 12  1  0
 12 13  2  0
  2 14  1  0
 14 15  1  0
 15 16  1  0
 16 17  1  0
 17 18  1  0
 18 19  1  0
 19 20  1  0
 13  4  1  0
 20 14  1  0
 13  8  1  0
  5 21  1  0
  6 22  1  0
  7 23  1  0
  9 24  1  0
 11 25  1  0
 12 26  1  0
 15 27  1  0
 15 28  1  0
 16 29  1  0
 16 30  1  0
 17 31  1  0
 17 32  1  0
 18 33  1  0
 18 34  1  0
 19 35  1  0
 19 36  1  0
 20 37  1  0
 20 38  1  0
M  CHG  1  18   1
M  END
>  <IX_DELTA_E>  (1)
0.000

>  <IX_CONF_ID>  (1)
1

>  <IX_Q>  (1)
-0.6500
1.4470
-0.6500
-0.0090
-0.1500
-0.1500
-0.1500
0.0000
0.1600
-0.6200
0.1600
-0.1500
0.0000
-0.8494
0.1957
-0.1600
0.3430
-0.9060
0.3430
0.1957
0.1500
0.1500
0.1500
0.1500
0.1500
0.1500
0.0800
0.0800
0.0800
0.0800
0.0800
0.0800
0.4500
0.4500
0.0800
0.0800
0.0800
0.0800

>  <IX_ALOGP>  (1)
-0.33390
-0.00240
-0.33390
0.18930
0.15810
0.15810
0.15810
0.29550
0.15810
-0.32390
0.15810
0.15810
0.29550
-0.31870
-0.20350
0.14410
-0.20350
-1.95000
-0.20350
-0.20350
0.12300
0.12300
0.12300
0.12300
0.12300
0.12300
0.12300
0.12300
0.12300
0.12300
0.12300
0.12300
0.21420
0.21420
0.12300
0.12300
0.12300
0.12300

$$$$
212794
     RDKit          3D

 41 44  0  0  0  0  0  0  0  0999 V2000
   -3.8851    2.7894    0.3726 C   0  0  0  0  0  0  0  0  0  0  0  0
   -2.9927    1.7385    0.0214 O   0  0  0  0  0  0  0  0  0  0  0  0
   -3.3581    0.3884   -0.1042 C   0  0  0  0  0  0  0  0  0  0  0  0
   -4.6903   -0.0380    0.0668 C   0  0  0  0  0  0  0  0  0  0  0  0
   -5.0292   -1.3850   -0.0853 C   0  0  0  0  0  0  0  0  0  0  0  0
   -4.0470   -2.3201   -0.4087 C   0  0  0  0  0  0  0  0  0  0  0  0
   -2.7219   -1.9144   -0.5691 C   0  0  0  0  0  0  0  0  0  0  0  0
   -2.3642   -0.5629   -0.4151 C   0  0  0  0  0  0  0  0  0  0  0  0
   -0.9856   -0.1663   -0.5581 N   0  0  0  0  0  0  0  0  0  0  0  0
   -0.2918    0.5697    0.5064 C   0  0  0  0  0  0  0  0  0  0  0  0
    0.9300   -0.2301    0.9583 C   0  0  0  0  0  0  0  0  0  0  0  0
    1.7143   -0.6475   -0.2096 N   0  0  0  0  0  0  0  0  0  0  0  0
    3.1474   -0.6603   -0.1432 C   0  0  0  0  0  0  0  0  0  0  0  0
    3.8411   -1.8297   -0.2905 N   0  0  0  0  0  0  0  0  0  0  0  0
    5.2104   -1.8637   -0.2077 C   0  0  0  0  0  0  0  0  0  0  0  0
    5.9224   -0.7174    0.0022 N   0  0  0  0  0  0  0  0  0  0  0  0
    5.2372    0.4431    0.1432 C   0  0  0  0  0  0  0  0  0  0  0  0
    5.7605    1.6682    0.3227 N   0  0  0  0  0  0  0  0  0  0  0  0
    4.6518    2.4579    0.3458 C   0  0  0  0  0  0  0  0  0  0  0  0
    3.4910    1.7721    0.1977 N   0  0  0  0  0  0  0  0  0  0  0  0
    3.8874    0.4981    0.0783 C   0  0  0  0  0  0  0  0  0  0  0  0
    1.0260   -1.3594   -1.2911 C   0  0  0  0  0  0  0  0  0  0  0  0
   -0.2020   -0.5594   -1.7342 C   0  0  0  0  0  0  0  0  0  0  0  0
   -4.3235    2.6012    1.3761 H   0  0  0  0  0  0  0  0  0  0  0  0
   -4.6907    2.8796   -0.3878 H   0  0  0  0  0  0  0  0  0  0  0  0
   -3.3200    3.7433    0.4062 H   0  0  0  0  0  0  0  0  0  0  0  0
   -5.4726    0.6639    0.3143 H   0  0  0  0  0  0  0  0  0  0  0  0
   -6.0554   -1.7057    0.0485 H   0  0  0  0  0  0  0  0  0  0  0  0
   -4.3120   -3.3631   -0.5275 H   0  0  0  0  0  0  0  0  0  0  0  0
   -1.9692   -2.6583   -0.7995 H   0  0  0  0  0  0  0  0  0  0  0  0
   -0.9595    0.7348    1.3803 H   0  0  0  0  0  0  0  0  0  0  0  0
    0.0332    1.5620    0.1197 H   0  0  0  0  0  0  0  0  0  0  0  0
    1.5398    0.3817    1.6561 H   0  0  0  0  0  0  0  0  0  0  0  0
    0.5888   -1.1355    1.5053 H   0  0  0  0  0  0  0  0  0  0  0  0
    5.7314   -2.8024   -0.3246 H   0  0  0  0  0  0  0  0  0  0  0  0
    4.6954    3.5341    0.4658 H   0  0  0  0  0  0  0  0  0  0  0  0
    2.5225    2.1594    0.1616 H   0  0  0  0  0  0  0  0  0  0  0  0
    0.7128   -2.3627   -0.9297 H   0  0  0  0  0  0  0  0  0  0  0  0
    1.7033   -1.4977   -2.1623 H   0  0  0  0  0  0  0  0  0  0  0  0
   -0.8091   -1.1628   -2.4426 H   0  0  0  0  0  0  0  0  0  0  0  0
    0.1333    0.3569   -2.2690 H   0  0  0  0  0  0  0  0  0  0  0  0
  1  2  1  0
  2  3  1  0
  3  4  2  0
  4  5  1  0
  5  6  2  0
  6  7  1  0
  7  8  2  0
  8  9  1  0
  9 10  1  0
 10 11  1  0
 11 12  1  0
 12 13  1  0
 13 14  2  0
 14 15  1  0
 15 16  2  0
 16 17  1  0
 17 18  1  0
 18 19  2  0
 19 20  1  0
 20 21  1  0
 12 22  1  0
 22 23  1  0
  8  3  1  0
 23  9  1  0
 21 13  1  0
 21 17  2  0
  1 24  1  0
  1 25  1  0
  1 26  1  0
  4 27  1  0
  5 28  1  0
  6 29  1  0
  7 30  1  0
 10 31  1  0
 10 32  1  0
 11 33  1  0
 11 34  1  0
 15 35  1  0
 19 36  1  0
 20 37  1  0
 22 38  1  0
 22 39  1  0
 23 40  1  0
 23 41  1  0
M  END
>  <IX_DELTA_E>  (6)
0.000

>  <IX_CONF_ID>  (6)
1

>  <IX_Q>  (6)
0.0400
-0.3625
0.0825
-0.1500
-0.1500
-0.1500
-0.1500
0.1000
-0.8382
0.2091
0.2091
-0.8382
0.4100
-0.6200
0.4700
-0.5660
0.4832
-0.5653
0.0365
0.0332
-0.1516
0.2091
0.2091
0.0800
0.0800
0.0800
0.1500
0.1500
0.1500
0.1500
0.0800
0.0800
0.0800
0.0800
0.1500
0.1500
0.2700
0.0800
0.0800
0.0800
0.0800

>  <IX_ALOGP>  (6)
-0.20350
-0.41950
0.54370
0.15810
0.15810
0.15810
0.15810
0.46190
-0.44580
-0.20350
-0.20350
-0.44580
0.46190
-0.32390
0.15810
-0.32390
0.29550
-0.32390
0.15810
-0.32390
0.29550
-0.20350
-0.20350
0.12300
0.12300
0.12300
0.12300
0.12300
0.12300
0.12300
0.12300
0.12300
0.12300
0.12300
0.12300
0.12300
0.21420
0.12300
0.12300
0.12300
0.12300

$$$$
644968
     RDKit          3D

 40 42  0  0  0  0  0  0  0  0999 V2000
   -0.0316   -0.1145   -3.5426 C   0  0  0  0  0  0  0  0  0  0  0  0
    0.6754    0.5311   -2.4894 O   0  0  0  0  0  0  0  0  0  0  0  0
    1.4399   -0.1405   -1.5190 C   0  0  0  0  0  0  0  0  0  0  0  0
    1.3828   -1.5397   -1.3735 C   0  0  0  0  0  0  0  0  0  0  0  0
    2.1595   -2.1830   -0.4056 C   0  0  0  0  0  0  0  0  0  0  0  0
    2.9874   -1.4406    0.4343 C   0  0  0  0  0  0  0  0  0  0  0  0
    3.0496   -0.0524    0.3057 C   0  0  0  0  0  0  0  0  0  0  0  0
    2.2920    0.6059   -0.6763 C   0  0  0  0  0  0  0  0  0  0  0  0
    2.3591    2.1080   -0.7819 C   0  0  0  0  0  0  0  0  0  0  0  0
    1.2471    2.7014   -0.0471 N   0  0  0  0  0  0  0  0  0  0  0  0
    1.2772    2.8673    1.3776 C   0  0  0  0  0  0  0  0  0  0  0  0
    2.3709    2.8217    2.0018 O   0  0  0  0  0  0  0  0  0  0  0  0
   -0.0024    3.0387    2.1373 C   0  0  0  0  0  0  0  0  0  0  0  0
   -0.7090    1.7657    2.1991 N   0  0  0  0  0  0  0  0  0  0  0  0
   -0.9630    1.1009    3.3130 N   0  0  0  0  0  0  0  0  0  0  0  0
   -1.6049   -0.0147    3.0059 N   0  0  0  0  0  0  0  0  0  0  0  0
   -1.7226    0.0072    1.6604 C   0  0  0  0  0  0  0  0  0  0  0  0
   -2.3764   -1.0440    0.8563 C   0  0  0  0  0  0  0  0  0  0  0  0
   -2.9665   -2.1588    1.4738 C   0  0  0  0  0  0  0  0  0  0  0  0
   -3.5889   -3.1348    0.6894 C   0  0  0  0  0  0  0  0  0  0  0  0
   -3.6193   -3.0051   -0.6610 N   0  0  0  0  0  0  0  0  0  0  0  0
   -3.0469   -1.9423   -1.2871 C   0  0  0  0  0  0  0  0  0  0  0  0
   -2.4151   -0.9427   -0.5428 C   0  0  0  0  0  0  0  0  0  0  0  0
   -1.1678    1.1191    1.1417 N   0  0  0  0  0  0  0  0  0  0  0  0
   -0.8245   -0.7711   -3.1334 H   0  0  0  0  0  0  0  0  0  0  0  0
    0.6729   -0.7150   -4.1555 H   0  0  0  0  0  0  0  0  0  0  0  0
   -0.5055    0.6560   -4.1847 H   0  0  0  0  0  0  0  0  0  0  0  0
    0.7393   -2.1413   -1.9995 H   0  0  0  0  0  0  0  0  0  0  0  0
    2.1126   -3.2588   -0.3035 H   0  0  0  0  0  0  0  0  0  0  0  0
    3.5801   -1.9428    1.1882 H   0  0  0  0  0  0  0  0  0  0  0  0
    3.6960    0.5081    0.9692 H   0  0  0  0  0  0  0  0  0  0  0  0
    2.3060    2.4192   -1.8484 H   0  0  0  0  0  0  0  0  0  0  0  0
    3.3251    2.4948   -0.3906 H   0  0  0  0  0  0  0  0  0  0  0  0
    0.3434    2.8420   -0.5511 H   0  0  0  0  0  0  0  0  0  0  0  0
   -0.6411    3.7939    1.6288 H   0  0  0  0  0  0  0  0  0  0  0  0
    0.2117    3.4042    3.1662 H   0  0  0  0  0  0  0  0  0  0  0  0
   -2.9481   -2.2754    2.5491 H   0  0  0  0  0  0  0  0  0  0  0  0
   -4.0444   -3.9978    1.1552 H   0  0  0  0  0  0  0  0  0  0  0  0
   -3.0832   -1.8714   -2.3651 H   0  0  0  0  0  0  0  0  0  0  0  0
   -1.9666   -0.0986   -1.0527 H   0  0  0  0  0  0  0  0  0  0  0  0
  1  2  1  0
  2  3  1  0
  3  4  2  0
  4  5  1  0
  5  6  2  0
  6  7  1  0
  7  8  2  0
  8  9  1  0
  9 10  1  0
 10 11  1  0
 11 12  2  0
 11 13  1  0
 13 14  1  0
 14 15  1  0
 15 16  2  0
 16 17  1  0
 17 18  1  0
 18 19  2  0
 19 20  1  0
 20 21  2  0
 21 22  1  0
 22 23  2  0
 17 24  2  0
  8  3  1  0
 24 14  1  0
 23 18  1  0
  1 25  1  0
  1 26  1  0
  1 27  1  0
  4 28  1  0
  5 29  1  0
  6 30  1  0
  7 31  1  0
  9 32  1  0
  9 33  1  0
 10 34  1  0
 13 35  1  0
 13 36  1  0
 19 37  1  0
 20 38  1  0
 22 39  1  0
 23 40  1  0
M  END
>  <IX_DELTA_E>  (25)
0.000

>  <IX_CONF_ID>  (25)
1

>  <IX_Q>  (25)
0.0400
-0.3625
0.0825
-0.1500
-0.1500
-0.1500
-0.1500
-0.1435
0.2836
-0.7301
0.5690
-0.5700
0.1566
0.5804
-0.4180
-0.2272
0.4620
0.0540
-0.1500
0.1600
-0.6200
0.1600
-0.1500
-0.7068
0.0800
0.0800
0.0800
0.1500
0.1500
0.1500
0.1500
0.0800
0.0800
0.3700
0.0800
0.0800
0.1500
0.1500
0.1500
0.1500

>  <IX_ALOGP>  (25)
-0.20350
-0.41950
0.54370
0.15810
0.15810
0.15810
0.15810
0.13600
-0.05160
-0.70960
-0.27830
-0.15260
-0.05160
-0.32390
-0.32390
-0.32390
0.27130
0.27130
0.15810
0.15810
-0.32390
0.15810
0.15810
-0.32390
0.12300
0.12300
0.12300
0.12300
0.12300
0.12300
0.12300
0.12300
0.12300
0.21420
0.12300
0.12300
0.12300
0.12300
0.12300
0.12300

$$$$
648322
     RDKit          3D

 33 35  0  0  0  0  0  0  0  0999 V2000
   -3.3040    2.6734    1.5780 O   0  0  0  0  0  0  0  0  0  0  0  0
   -2.8232    1.6531    1.0167 C   0  0  0  0  0  0  0  0  0  0  0  0
   -1.3271    1.5128    0.9700 C   0  0  0  0  0  0  0  0  0  0  0  0
   -0.7266    1.9277   -0.7000 S   0  0  0  0  0  0  0  0  0  0  0  0
    0.9794    1.5521   -0.3146 C   0  0  0  0  0  0  0  0  0  0  0  0
    1.8300    2.4419    0.2282 N   0  0  0  0  0  0  0  0  0  0  0  0
    2.9790    1.8057    0.3547 N   0  0  0  0  0  0  0  0  0  0  0  0
    2.8127    0.5519   -0.1120 C   0  0  0  0  0  0  0  0  0  0  0  0
    3.8721   -0.4827   -0.1709 C   0  0  0  0  0  0  0  0  0  0  0  0
    5.1710   -0.2361    0.3125 C   0  0  0  0  0  0  0  0  0  0  0  0
    6.1416   -1.2357    0.2233 C   0  0  0  0  0  0  0  0  0  0  0  0
    5.8296   -2.4451   -0.3116 N   0  0  0  0  0  0  0  0  0  0  0  0
    4.5831   -2.7178   -0.7777 C   0  0  0  0  0  0  0  0  0  0  0  0
    3.5851   -1.7429   -0.7204 C   0  0  0  0  0  0  0  0  0  0  0  0
    1.5502    0.3518   -0.5484 N   0  0  0  0  0  0  0  0  0  0  0  0
   -3.7445    0.6624    0.3928 C   0  0  0  0  0  0  0  0  0  0  0  0
   -3.2629   -0.5057   -0.2347 C   0  0  0  0  0  0  0  0  0  0  0  0
   -4.1515   -1.4144   -0.8200 C   0  0  0  0  0  0  0  0  0  0  0  0
   -5.5277   -1.1778   -0.7779 C   0  0  0  0  0  0  0  0  0  0  0  0
   -6.0196   -0.0252   -0.1638 C   0  0  0  0  0  0  0  0  0  0  0  0
   -5.1366    0.8890    0.4187 C   0  0  0  0  0  0  0  0  0  0  0  0
   -0.8651    2.2168    1.6965 H   0  0  0  0  0  0  0  0  0  0  0  0
   -1.0206    0.4840    1.2591 H   0  0  0  0  0  0  0  0  0  0  0  0
    3.8411    2.2416    0.7488 H   0  0  0  0  0  0  0  0  0  0  0  0
    5.4489    0.7154    0.7450 H   0  0  0  0  0  0  0  0  0  0  0  0
    7.1446   -1.0529    0.5885 H   0  0  0  0  0  0  0  0  0  0  0  0
    4.3673   -3.6879   -1.2052 H   0  0  0  0  0  0  0  0  0  0  0  0
    2.5969   -1.9768   -1.0960 H   0  0  0  0  0  0  0  0  0  0  0  0
   -2.2054   -0.7243   -0.2834 H   0  0  0  0  0  0  0  0  0  0  0  0
   -3.7725   -2.3058   -1.3061 H   0  0  0  0  0  0  0  0  0  0  0  0
   -6.2127   -1.8850   -1.2275 H   0  0  0  0  0  0  0  0  0  0  0  0
   -7.0870    0.1600   -0.1428 H   0  0  0  0  0  0  0  0  0  0  0  0
   -5.5454    1.7764    0.8853 H   0  0  0  0  0  0  0  0  0  0  0  0
  1  2  2  0
  2  3  1  0
  3  4  1  0
  4  5  1  0
  5  6  2  0
  6  7  1  0
  7  8  1  0
  8  9  1  0
  9 10  2  0
 10 11  1  0
 11 12  2  0
 12 13  1  0
 13 14  2  0
  8 15  2  0
  2 16  1  0
 16 17  2  0
 17 18  1  0
 18 19  2  0
 19 20  1  0
 20 21  2  0
 15  5  1  0
 21 16  1  0
 14  9  1  0
  3 22  1  0
  3 23  1  0
  7 24  1  0
 10 25  1  0
 11 26  1  0
 13 27  1  0
 14 28  1  0
 17 29  1  0
 18 30  1  0
 19 31  1  0
 20 32  1  0
 21 33  1  0
M  END
>  <IX_DELTA_E>  (54)
0.000

>  <IX_CONF_ID>  (54)
1

>  <IX_Q>  (54)
-0.5700
0.4228
0.1310
-0.2850
0.5710
-0.7068
0.2996
0.1335
0.0530
-0.1500
0.1600
-0.6200
0.1600
-0.1500
-0.5653
0.0862
-0.1500
-0.1500
-0.1500
-0.1500
-0.1500
0.0800
0.0800
0.2700
0.1500
0.1500
0.1500
0.1500
0.1500
0.1500
0.1500
0.1500
0.1500

>  <IX_ALOGP>  (54)
0.11290
-0.27830
-0.20350
0.64820
0.18930
-0.32390
-0.32390
0.27130
0.27130
0.15810
0.15810
-0.32390
0.15810
0.15810
-0.32390
0.13600
0.15810
0.15810
0.15810
0.15810
0.15810
0.12300
0.12300
0.21420
0.12300
0.12300
0.12300
0.12300
0.12300
0.12300
0.12300
0.12300
0.12300

$$$$
659763
     RDKit          3D

 37 40  0  0  0  0  0  0  0  0999 V2000
   -1.1517    4.1826    0.3476 C   0  0  0  0  0  0  0  0  0  0  0  0
   -2.2700    3.3628    0.1722 C   0  0  0  0  0  0  0  0  0  0  0  0
   -2.1151    1.9811    0.0343 C   0  0  0  0  0  0  0  0  0  0  0  0
   -0.8310    1.4084    0.0809 C   0  0  0  0  0  0  0  0  0  0  0  0
   -0.6112    0.0263   -0.0505 C   0  0  0  0  0  0  0  0  0  0  0  0
   -1.7015   -0.8886   -0.1920 N   0  0  0  0  0  0  0  0  0  0  0  0
   -2.4881   -1.3499    0.9358 C   0  0  0  0  0  0  0  0  0  0  0  0
   -3.4965   -2.3298    0.3478 C   0  0  0  0  0  0  0  0  0  0  0  0
   -2.9492   -2.7203   -1.0275 C   0  0  0  0  0  0  0  0  0  0  0  0
   -1.9460   -1.6356   -1.4099 C   0  0  0  0  0  0  0  0  0  0  0  0
    0.6599   -0.4538   -0.0415 N   0  0  0  0  0  0  0  0  0  0  0  0
    1.7360    0.3662    0.1096 C   0  0  0  0  0  0  0  0  0  0  0  0
    3.1093   -0.1924    0.1161 C   0  0  0  0  0  0  0  0  0  0  0  0
    3.3211   -1.5759   -0.0119 C   0  0  0  0  0  0  0  0  0  0  0  0
    4.6242   -2.0801   -0.0037 C   0  0  0  0  0  0  0  0  0  0  0  0
    5.6829   -1.2384    0.1268 N   0  0  0  0  0  0  0  0  0  0  0  0
    5.5123    0.1035    0.2524 C   0  0  0  0  0  0  0  0  0  0  0  0
    4.2270    0.6511    0.2463 C   0  0  0  0  0  0  0  0  0  0  0  0
    1.5407    1.7043    0.2557 N   0  0  0  0  0  0  0  0  0  0  0  0
    0.2952    2.2427    0.2449 C   0  0  0  0  0  0  0  0  0  0  0  0
    0.1299    3.6255    0.3838 C   0  0  0  0  0  0  0  0  0  0  0  0
   -1.2797    5.2518    0.4518 H   0  0  0  0  0  0  0  0  0  0  0  0
   -3.2593    3.8004    0.1340 H   0  0  0  0  0  0  0  0  0  0  0  0
   -2.9979    1.3742   -0.1170 H   0  0  0  0  0  0  0  0  0  0  0  0
   -1.8219   -1.8646    1.6657 H   0  0  0  0  0  0  0  0  0  0  0  0
   -3.0052   -0.4984    1.4306 H   0  0  0  0  0  0  0  0  0  0  0  0
   -3.6251   -3.2202    1.0030 H   0  0  0  0  0  0  0  0  0  0  0  0
   -4.4804   -1.8212    0.2259 H   0  0  0  0  0  0  0  0  0  0  0  0
   -3.7661   -2.7976   -1.7790 H   0  0  0  0  0  0  0  0  0  0  0  0
   -2.4292   -3.7026   -0.9573 H   0  0  0  0  0  0  0  0  0  0  0  0
   -2.3751   -0.9542   -2.1783 H   0  0  0  0  0  0  0  0  0  0  0  0
   -1.0028   -2.0911   -1.7897 H   0  0  0  0  0  0  0  0  0  0  0  0
    2.4896   -2.2626   -0.1182 H   0  0  0  0  0  0  0  0  0  0  0  0
    4.7954   -3.1433   -0.0993 H   0  0  0  0  0  0  0  0  0  0  0  0
    6.3752    0.7481    0.3516 H   0  0  0  0  0  0  0  0  0  0  0  0
    4.1115    1.7227    0.3458 H   0  0  0  0  0  0  0  0  0  0  0  0
    0.9928    4.2689    0.5132 H   0  0  0  0  0  0  0  0  0  0  0  0
  1  2  2  0
  2  3  1  0
  3  4  2  0
  4  5  1  0
  5  6  1  0
  6  7  1  0
  7  8  1  0
  8  9  1  0
  9 10  1  0
  5 11  2  0
 11 12  1  0
 12 13  1  0
 13 14  2  0
 14 15  1  0
 15 16  2  0
 16 17  1  0
 17 18  2  0
 12 19  2  0
 19 20  1  0
 20 21  2  0
 21  1  1  0
 20  4  1  0
 10  6  1  0
 18 13  1  0
  1 22  1  0
  2 23  1  0
  3 24  1  0
  7 25  1  0
  7 26  1  0
  8 27  1  0
  8 28  1  0
  9 29  1  0
  9 30  1  0
 10 31  1  0
 10 32  1  0
 14 33  1  0
 15 34  1  0
 17 35  1  0
 18 36  1  0
 21 37  1  0
M  END
>  <IX_DELTA_E>  (74)
0.000

>  <IX_CONF_ID>  (74)
1

>  <IX_Q>  (74)
-0.1500
-0.1500
-0.1500
0.0000
0.4100
-0.8382
0.2091
-0.1600
-0.1600
0.2091
-0.6200
0.6200
0.0000
-0.1500
0.1600
-0.6200
0.1600
-0.1500
-0.6200
0.3100
-0.1500
0.1500
0.1500
0.1500
0.0800
0.0800
0.0800
0.0800
0.0800
0.0800
0.0800
0.0800
0.1500
0.1500
0.1500
0.1500
0.1500

>  <IX_ALOGP>  (74)
0.15810
0.15810
0.15810
0.29550
0.46190
-0.44580
-0.20350
0.14410
0.14410
-0.20350
-0.32390
0.27130
0.27130
0.15810
0.15810
-0.32390
0.15810
0.15810
-0.32390
0.29550
0.15810
0.12300
0.12300
0.12300
0.12300
0.12300
0.12300
0.12300
0.12300
0.12300
0.12300
0.12300
0.12300
0.12300
0.12300
0.12300
0.12300

$$$$
661830
     RDKit          3D

 40 42  0  0  0  0  0  0  0  0999 V2000
   -3.9184    2.9065    2.0397 C   0  0  0  0  0  0  0  0  0  0  0  0
   -3.0210    2.0083    1.4296 O   0  0  0  0  0  0  0  0  0  0  0  0
   -3.5789    1.5372    0.2204 C   0  0  0  0  0  0  0  0  0  0  0  0
   -2.6233    0.5363   -0.4315 C   0  0  0  0  0  0  0  0  0  0  0  0
   -2.3887   -0.6884    0.4634 C   0  0  0  0  0  0  0  0  0  0  0  0
   -1.5309   -1.6658   -0.2081 N   0  0  0  0  0  0  0  0  0  0  0  0
   -0.1154   -1.4540   -0.3860 C   0  0  0  0  0  0  0  0  0  0  0  0
    0.4403   -0.3135    0.1049 N   0  0  0  0  0  0  0  0  0  0  0  0
    1.7623   -0.0299   -0.0173 C   0  0  0  0  0  0  0  0  0  0  0  0
    2.3043    1.2408    0.5200 C   0  0  0  0  0  0  0  0  0  0  0  0
    3.6715    1.5458    0.4020 C   0  0  0  0  0  0  0  0  0  0  0  0
    4.1594    2.7516    0.9113 C   0  0  0  0  0  0  0  0  0  0  0  0
    3.3167    3.6278    1.5177 N   0  0  0  0  0  0  0  0  0  0  0  0
    1.9898    3.3649    1.6465 C   0  0  0  0  0  0  0  0  0  0  0  0
    1.4595    2.1710    1.1515 C   0  0  0  0  0  0  0  0  0  0  0  0
    2.5771   -0.9176   -0.6419 N   0  0  0  0  0  0  0  0  0  0  0  0
    2.0985   -2.0800   -1.1523 C   0  0  0  0  0  0  0  0  0  0  0  0
    2.9775   -2.9650   -1.7856 C   0  0  0  0  0  0  0  0  0  0  0  0
    2.5025   -4.1633   -2.3195 C   0  0  0  0  0  0  0  0  0  0  0  0
    1.1467   -4.4796   -2.2307 C   0  0  0  0  0  0  0  0  0  0  0  0
    0.2560   -3.6032   -1.6027 C   0  0  0  0  0  0  0  0  0  0  0  0
    0.7196   -2.3905   -1.0465 C   0  0  0  0  0  0  0  0  0  0  0  0
   -3.4833    3.2415    3.0039 H   0  0  0  0  0  0  0  0  0  0  0  0
   -4.8928    2.4174    2.2656 H   0  0  0  0  0  0  0  0  0  0  0  0
   -4.0729    3.8094    1.4071 H   0  0  0  0  0  0  0  0  0  0  0  0
   -3.7296    2.3813   -0.4914 H   0  0  0  0  0  0  0  0  0  0  0  0
   -4.5576    1.0332    0.3965 H   0  0  0  0  0  0  0  0  0  0  0  0
   -1.6614    1.0481   -0.6447 H   0  0  0  0  0  0  0  0  0  0  0  0
   -3.0570    0.2029   -1.3983 H   0  0  0  0  0  0  0  0  0  0  0  0
   -3.3691   -1.1631    0.6891 H   0  0  0  0  0  0  0  0  0  0  0  0
   -1.9280   -0.3872    1.4292 H   0  0  0  0  0  0  0  0  0  0  0  0
   -1.9849   -2.5632   -0.4781 H   0  0  0  0  0  0  0  0  0  0  0  0
    4.3591    0.8623   -0.0801 H   0  0  0  0  0  0  0  0  0  0  0  0
    5.2109    2.9908    0.8218 H   0  0  0  0  0  0  0  0  0  0  0  0
    1.3432    4.0830    2.1321 H   0  0  0  0  0  0  0  0  0  0  0  0
    0.3986    1.9825    1.2614 H   0  0  0  0  0  0  0  0  0  0  0  0
    4.0307   -2.7249   -1.8667 H   0  0  0  0  0  0  0  0  0  0  0  0
    3.1861   -4.8476   -2.8063 H   0  0  0  0  0  0  0  0  0  0  0  0
    0.7828   -5.4074   -2.6519 H   0  0  0  0  0  0  0  0  0  0  0  0
   -0.7803   -3.8981   -1.5739 H   0  0  0  0  0  0  0  0  0  0  0  0
  1  2  1  0
  2  3  1  0
  3  4  1  0
  4  5  1  0
  5  6  1  0
  6  7  1  0
  7  8  2  0
  8  9  1  0
  9 10  1  0
 10 11  2  0
 11 12  1  0
 12 13  2  0
 13 14  1  0
 14 15  2  0
  9 16  2  0
 16 17  1  0
 17 18  2  0
 18 19  1  0
 19 20  2  0
 20 21  1  0
 21 22  2  0
 22  7  1  0
 15 10  1  0
 22 17  1  0
  1 23  1  0
  1 24  1  0
  1 25  1  0
  3 26  1  0
  3 27  1  0
  4 28  1  0
  4 29  1  0
  5 30  1  0
  5 31  1  0
  6 32  1  0
 11 33  1  0
 12 34  1  0
 14 35  1  0
 15 36  1  0
 18 37  1  0
 19 38  1  0
 20 39  1  0
 21 40  1  0
M  END
>  <IX_DELTA_E>  (75)
0.000

>  <IX_CONF_ID>  (75)
1

>  <IX_Q>  (75)
0.0400
-0.5600
0.1200
-0.1600
0.2091
-0.8691
0.4100
-0.6200
0.6200
0.0000
-0.1500
0.1600
-0.6200
0.1600
-0.1500
-0.6200
0.3100
-0.1500
-0.1500
-0.1500
-0.1500
0.0000
0.0800
0.0800
0.0800
0.0800
0.0800
0.0800
0.0800
0.0800
0.0800
0.4000
0.1500
0.1500
0.1500
0.1500
0.1500
0.1500
0.1500
0.1500

>  <IX_ALOGP>  (75)
-0.20350
-0.06840
-0.20350
0.14410
-0.20350
-0.51880
0.46190
-0.32390
0.27130
0.27130
0.15810
0.15810
-0.32390
0.15810
0.15810
-0.32390
0.29550
0.15810
0.15810
0.15810
0.15810
0.29550
0.12300
0.12300
0.12300
0.12300
0.12300
0.12300
0.12300
0.12300
0.12300
0.21420
0.12300
0.12300
0.12300
0.12300
0.12300
0.12300
0.12300
0.12300

$$$$
662339
     RDKit          3D

 30 32  0  0  0  0  0  0  0  0999 V2000
   -3.2603   -1.6618    3.2743 Cl  0  0  0  0  0  0  0  0  0  0  0  0
   -3.0383   -0.8940    1.7129 C   0  0  0  0  0  0  0  0  0  0  0  0
   -3.7057   -1.3908    0.5883 C   0  0  0  0  0  0  0  0  0  0  0  0
   -3.5318   -0.7770   -0.6553 C   0  0  0  0  0  0  0  0  0  0  0  0
   -2.6956    0.3435   -0.7822 C   0  0  0  0  0  0  0  0  0  0  0  0
   -2.5004    0.9944   -2.1236 C   0  0  0  0  0  0  0  0  0  0  0  0
   -1.3590    0.0182   -3.1592 S   0  0  0  0  0  0  0  0  0  0  0  0
    0.1169    0.5017   -2.2649 C   0  0  0  0  0  0  0  0  0  0  0  0
    0.8168    1.6220   -2.5165 N   0  0  0  0  0  0  0  0  0  0  0  0
    1.8403    1.6131   -1.6765 N   0  0  0  0  0  0  0  0  0  0  0  0
    1.7260    0.4852   -0.9475 C   0  0  0  0  0  0  0  0  0  0  0  0
    2.6842    0.0650    0.0960 C   0  0  0  0  0  0  0  0  0  0  0  0
    3.8589    0.7970    0.3302 C   0  0  0  0  0  0  0  0  0  0  0  0
    4.7678    0.3554    1.2943 C   0  0  0  0  0  0  0  0  0  0  0  0
    4.5127   -0.7751    2.0049 N   0  0  0  0  0  0  0  0  0  0  0  0
    3.3814   -1.5020    1.8041 C   0  0  0  0  0  0  0  0  0  0  0  0
    2.4479   -1.0957    0.8467 C   0  0  0  0  0  0  0  0  0  0  0  0
    0.6640   -0.2006   -1.3027 O   0  0  0  0  0  0  0  0  0  0  0  0
   -2.0169    0.8279    0.3495 C   0  0  0  0  0  0  0  0  0  0  0  0
   -2.1899    0.2116    1.5908 C   0  0  0  0  0  0  0  0  0  0  0  0
   -4.3597   -2.2484    0.6772 H   0  0  0  0  0  0  0  0  0  0  0  0
   -4.0503   -1.1725   -1.5199 H   0  0  0  0  0  0  0  0  0  0  0  0
   -3.4803    1.0538   -2.6465 H   0  0  0  0  0  0  0  0  0  0  0  0
   -2.1233    2.0367   -2.0174 H   0  0  0  0  0  0  0  0  0  0  0  0
    4.0781    1.6935   -0.2347 H   0  0  0  0  0  0  0  0  0  0  0  0
    5.6787    0.9085    1.4736 H   0  0  0  0  0  0  0  0  0  0  0  0
    3.2087   -2.3994    2.3844 H   0  0  0  0  0  0  0  0  0  0  0  0
    1.5530   -1.6869    0.6926 H   0  0  0  0  0  0  0  0  0  0  0  0
   -1.3555    1.6812    0.2688 H   0  0  0  0  0  0  0  0  0  0  0  0
   -1.6685    0.5957    2.4582 H   0  0  0  0  0  0  0  0  0  0  0  0
  1  2  1  0
  2  3  2  0
  3  4  1  0
  4  5  2  0
  5  6  1  0
  6  7  1  0
  7  8  1  0
  8  9  2  0
  9 10  1  0
 10 11  2  0
 11 12  1  0
 12 13  2  0
 13 14  1  0
 14 15  2  0
 15 16  1  0
 16 17  2  0
 11 18  1  0
  5 19  1  0
 19 20  2  0
 20  2  1  0
 18  8  1  0
 17 12  1  0
  3 21  1  0
  4 22  1  0
  6 23  1  0
  6 24  1  0
 13 25  1  0
 14 26  1  0
 16 27  1  0
 17 28  1  0
 19 29  1  0
 20 30  1  0
M  END
>  <IX_DELTA_E>  (86)
0.000

>  <IX_CONF_ID>  (86)
1

>  <IX_Q>  (86)
-0.1770
0.1770
-0.1500
-0.1500
-0.1435
0.2135
-0.2860
0.5341
-0.3381
-0.3381
0.4251
0.0530
-0.1500
0.1600
-0.6200
0.1600
-0.1500
-0.2800
-0.1500
-0.1500
0.1500
0.1500
0.0800
0.0800
0.1500
0.1500
0.1500
0.1500
0.1500
0.1500

>  <IX_ALOGP>  (86)
0.68950
0.24500
0.15810
0.15810
0.13600
-0.05160
0.64820
0.18930
-0.32390
-0.32390
0.27130
0.27130
0.15810
0.15810
-0.32390
0.15810
0.15810
0.15520
0.15810
0.15810
0.12300
0.12300
0.12300
0.12300
0.12300
0.12300
0.12300
0.12300
0.12300
0.12300

$$$$
663315
     RDKit          3D

 46 49  0  0  0  0  0  0  0  0999 V2000
   -2.8699   -0.2050   -2.2087 C   0  0  0  0  0  0  0  0  0  0  0  0
   -3.1356   -0.9887   -0.9236 C   0  0  0  0  0  0  0  0  0  0  0  0
   -1.8506   -1.2006   -0.0955 C   0  0  0  0  0  0  0  0  0  0  0  0
   -2.0754   -2.1800    1.0752 C   0  0  0  0  0  0  0  0  0  0  0  0
   -2.8647   -1.5394    2.2233 C   0  0  0  0  0  0  0  0  0  0  0  0
   -2.1920   -0.2468    2.6968 C   0  0  0  0  0  0  0  0  0  0  0  0
   -2.0188    0.7372    1.5372 C   0  0  0  0  0  0  0  0  0  0  0  0
   -1.3286    0.0806    0.4163 N   0  0  0  0  0  0  0  0  0  0  0  0
   -0.0126    0.5148    0.0235 C   0  0  0  0  0  0  0  0  0  0  0  0
    1.0163   -0.3717    0.0964 N   0  0  0  0  0  0  0  0  0  0  0  0
    2.2925   -0.0324   -0.2292 C   0  0  0  0  0  0  0  0  0  0  0  0
    3.3748   -1.0434   -0.1545 C   0  0  0  0  0  0  0  0  0  0  0  0
    4.6890   -0.7221   -0.5385 C   0  0  0  0  0  0  0  0  0  0  0  0
    5.6894   -1.6947   -0.4630 C   0  0  0  0  0  0  0  0  0  0  0  0
    5.3963   -2.9426   -0.0117 N   0  0  0  0  0  0  0  0  0  0  0  0
    4.1369   -3.2856    0.3670 C   0  0  0  0  0  0  0  0  0  0  0  0
    3.1065   -2.3448    0.3061 C   0  0  0  0  0  0  0  0  0  0  0  0
    2.5590    1.2331   -0.6462 N   0  0  0  0  0  0  0  0  0  0  0  0
    1.5774    2.1645   -0.7526 C   0  0  0  0  0  0  0  0  0  0  0  0
    1.8903    3.4537   -1.1995 C   0  0  0  0  0  0  0  0  0  0  0  0
    0.8811    4.4084   -1.3447 C   0  0  0  0  0  0  0  0  0  0  0  0
   -0.4435    4.0755   -1.0517 C   0  0  0  0  0  0  0  0  0  0  0  0
   -0.7686    2.7909   -0.6065 C   0  0  0  0  0  0  0  0  0  0  0  0
    0.2427    1.8265   -0.4315 C   0  0  0  0  0  0  0  0  0  0  0  0
   -2.5164    0.8200   -1.9758 H   0  0  0  0  0  0  0  0  0  0  0  0
   -3.8077   -0.1282   -2.7988 H   0  0  0  0  0  0  0  0  0  0  0  0
   -2.1083   -0.7262   -2.8263 H   0  0  0  0  0  0  0  0  0  0  0  0
   -3.5551   -1.9780   -1.2065 H   0  0  0  0  0  0  0  0  0  0  0  0
   -3.9067   -0.4568   -0.3305 H   0  0  0  0  0  0  0  0  0  0  0  0
   -1.1032   -1.6756   -0.7716 H   0  0  0  0  0  0  0  0  0  0  0  0
   -1.0867   -2.5063    1.4641 H   0  0  0  0  0  0  0  0  0  0  0  0
   -2.6069   -3.0901    0.7231 H   0  0  0  0  0  0  0  0  0  0  0  0
   -2.9199   -2.2549    3.0706 H   0  0  0  0  0  0  0  0  0  0  0  0
   -3.9057   -1.3306    1.8972 H   0  0  0  0  0  0  0  0  0  0  0  0
   -1.1962   -0.4834    3.1321 H   0  0  0  0  0  0  0  0  0  0  0  0
   -2.8127    0.2226    3.4893 H   0  0  0  0  0  0  0  0  0  0  0  0
   -1.4421    1.6169    1.9002 H   0  0  0  0  0  0  0  0  0  0  0  0
   -3.0136    1.1006    1.2029 H   0  0  0  0  0  0  0  0  0  0  0  0
    4.9394    0.2660   -0.9030 H   0  0  0  0  0  0  0  0  0  0  0  0
    6.7022   -1.4563   -0.7601 H   0  0  0  0  0  0  0  0  0  0  0  0
    3.9342   -4.2896    0.7193 H   0  0  0  0  0  0  0  0  0  0  0  0
    2.1094   -2.6350    0.6122 H   0  0  0  0  0  0  0  0  0  0  0  0
    2.9119    3.7131   -1.4470 H   0  0  0  0  0  0  0  0  0  0  0  0
    1.1231    5.4048   -1.6946 H   0  0  0  0  0  0  0  0  0  0  0  0
   -1.2233    4.8144   -1.1710 H   0  0  0  0  0  0  0  0  0  0  0  0
   -1.8075    2.5651   -0.4099 H   0  0  0  0  0  0  0  0  0  0  0  0
  1  2  1  0
  2  3  1  0
  3  4  1  0
  4  5  1  0
  5  6  1  0
  6  7  1  0
  7  8  1  0
  8  9  1  0
  9 10  2  0
 10 11  1  0
 11 12  1  0
 12 13  2  0
 13 14  1  0
 14 15  2  0
 15 16  1  0
 16 17  2  0
 11 18  2  0
 18 19  1  0
 19 20  2  0
 20 21  1  0
 21 22  2  0
 22 23  1  0
 23 24  2  0
  8  3  1  0
 24  9  1  0
 17 12  1  0
 24 19  1  0
  1 25  1  0
  1 26  1  0
  1 27  1  0
  2 28  1  0
  2 29  1  0
  3 30  1  0
  4 31  1  0
  4 32  1  0
  5 33  1  0
  5 34  1  0
  6 35  1  0
  6 36  1  0
  7 37  1  0
  7 38  1  0
 13 39  1  0
 14 40  1  0
 16 41  1  0
 17 42  1  0
 20 43  1  0
 21 44  1  0
 22 45  1  0
 23 46  1  0
M  END
>  <IX_DELTA_E>  (92)
0.000

>  <IX_CONF_ID>  (92)
1

>  <IX_Q>  (92)
-0.2400
-0.1600
0.2891
-0.1600
-0.1600
-0.1600
0.2091
-0.8382
0.4100
-0.6200
0.6200
0.0000
-0.1500
0.1600
-0.6200
0.1600
-0.1500
-0.6200
0.3100
-0.1500
-0.1500
-0.1500
-0.1500
0.0000
0.0800
0.0800
0.0800
0.0800
0.0800
0.0800
0.0800
0.0800
0.0800
0.0800
0.0800
0.0800
0.0800
0.0800
0.1500
0.1500
0.1500
0.1500
0.1500
0.1500
0.1500
0.1500

>  <IX_ALOGP>  (92)
0.14410
0.14410
-0.20510
0.14410
0.14410
0.14410
-0.20350
-0.44580
0.46190
-0.32390
0.27130
0.27130
0.15810
0.15810
-0.32390
0.15810
0.15810
-0.32390
0.29550
0.15810
0.15810
0.15810
0.15810
0.29550
0.12300
0.12300
0.12300
0.12300
0.12300
0.12300
0.12300
0.12300
0.12300
0.12300
0.12300
0.12300
0.12300
0.12300
0.12300
0.12300
0.12300
0.12300
0.12300
0.12300
0.12300
0.12300

$$$$
666048
     RDKit          3D

 34 38  0  0  0  0  0  0  0  0999 V2000
   -3.6305    2.6607   -0.8443 C   0  0  0  0  0  0  0  0  0  0  0  0
   -4.7028    2.9327    0.0107 C   0  0  0  0  0  0  0  0  0  0  0  0
   -4.9649    2.1056    1.0558 N   0  0  0  0  0  0  0  0  0  0  0  0
   -4.2062    1.0050    1.3059 C   0  0  0  0  0  0  0  0  0  0  0  0
   -3.1151    0.6912    0.4779 C   0  0  0  0  0  0  0  0  0  0  0  0
   -2.2696   -0.4983    0.7388 C   0  0  0  0  0  0  0  0  0  0  0  0
   -1.2251   -0.8531   -0.0664 N   0  0  0  0  0  0  0  0  0  0  0  0
   -0.6598   -1.9486    0.4139 N   0  0  0  0  0  0  0  0  0  0  0  0
    0.3476   -2.7483    0.0686 C   0  0  0  0  0  0  0  0  0  0  0  0
    1.2666   -2.5492   -1.0918 C   0  0  0  0  0  0  0  0  0  0  0  0
    2.4709   -1.8440   -0.6640 N   0  0  0  0  0  0  0  0  0  0  0  0
    3.5635   -2.4391   -0.1925 N   0  0  0  0  0  0  0  0  0  0  0  0
    4.5098   -1.5468    0.0920 N   0  0  0  0  0  0  0  0  0  0  0  0
    3.9839   -0.3472   -0.2105 C   0  0  0  0  0  0  0  0  0  0  0  0
    4.5699    0.9126   -0.1198 C   0  0  0  0  0  0  0  0  0  0  0  0
    3.7951    2.0173   -0.5254 C   0  0  0  0  0  0  0  0  0  0  0  0
    2.4747    1.8354   -0.9971 C   0  0  0  0  0  0  0  0  0  0  0  0
    1.9143    0.5437   -1.0798 C   0  0  0  0  0  0  0  0  0  0  0  0
    2.7163   -0.5229   -0.6754 C   0  0  0  0  0  0  0  0  0  0  0  0
    0.4488   -3.7533    0.9845 N   0  0  0  0  0  0  0  0  0  0  0  0
   -0.5188   -3.5768    1.8929 N   0  0  0  0  0  0  0  0  0  0  0  0
   -1.1641   -2.4667    1.4995 C   0  0  0  0  0  0  0  0  0  0  0  0
   -2.4705   -1.5929    2.0691 S   0  0  0  0  0  0  0  0  0  0  0  0
   -2.8365    1.5355   -0.6089 C   0  0  0  0  0  0  0  0  0  0  0  0
   -3.4160    3.3174   -1.6795 H   0  0  0  0  0  0  0  0  0  0  0  0
   -5.3235    3.7989   -0.1573 H   0  0  0  0  0  0  0  0  0  0  0  0
   -4.4566    0.3787    2.1501 H   0  0  0  0  0  0  0  0  0  0  0  0
    1.5505   -3.5413   -1.5085 H   0  0  0  0  0  0  0  0  0  0  0  0
    0.7555   -1.9832   -1.9006 H   0  0  0  0  0  0  0  0  0  0  0  0
    5.5829    1.0400    0.2369 H   0  0  0  0  0  0  0  0  0  0  0  0
    4.2155    3.0145   -0.4800 H   0  0  0  0  0  0  0  0  0  0  0  0
    1.8927    2.6965   -1.3024 H   0  0  0  0  0  0  0  0  0  0  0  0
    0.9072    0.3968   -1.4429 H   0  0  0  0  0  0  0  0  0  0  0  0
   -2.0056    1.3292   -1.2718 H   0  0  0  0  0  0  0  0  0  0  0  0
  1  2  2  0
  2  3  1  0
  3  4  2  0
  4  5  1  0
  5  6  1  0
  6  7  2  0
  7  8  1  0
  8  9  1  0
  9 10  1  0
 10 11  1  0
 11 12  1  0
 12 13  2  0
 13 14  1  0
 14 15  2  0
 15 16  1  0
 16 17  2  0
 17 18  1  0
 18 19  2  0
  9 20  2  0
 20 21  1  0
 21 22  2  0
 22 23  1  0
  5 24  2  0
 24  1  1  0
 23  6  1  0
 22  8  1  0
 19 11  1  0
 19 14  1  0
  1 25  1  0
  2 26  1  0
  4 27  1  0
 10 28  1  0
 10 29  1  0
 15 30  1  0
 16 31  1  0
 17 32  1  0
 18 33  1  0
 24 34  1  0
M  END
>  <IX_DELTA_E>  (96)
0.000

>  <IX_CONF_ID>  (96)
1

>  <IX_Q>  (96)
-0.1500
0.1600
-0.6200
0.1600
0.0862
0.5048
-0.6520
0.5052
0.0065
0.2756
0.3140
-0.4180
-0.2272
0.2272
-0.1500
-0.1500
-0.1500
-0.1500
-0.1516
-0.3381
-0.3381
0.2425
-0.1970
-0.1500
0.1500
0.1500
0.1500
0.0800
0.0800
0.1500
0.1500
0.1500
0.1500
0.1500

>  <IX_ALOGP>  (96)
0.15810
0.15810
-0.32390
0.15810
0.13600
-0.27830
0.18360
-0.32390
0.13600
-0.05160
-0.32390
-0.32390
-0.32390
0.29550
0.15810
0.15810
0.15810
0.15810
0.29550
-0.32390
-0.32390
0.18930
0.64820
0.15810
0.12300
0.12300
0.12300
0.12300
0.12300
0.12300
0.12300
0.12300
0.12300
0.12300

$$$$
692133
     RDKit          3D

 29 31  0  0  0  0  0  0  0  0999 V2000
    6.3415    2.0215    0.8152 F   0  0  0  0  0  0  0  0  0  0  0  0
    5.1036    1.4141    0.7233 C   0  0  0  0  0  0  0  0  0  0  0  0
    4.9191    0.5933    1.8196 F   0  0  0  0  0  0  0  0  0  0  0  0
    5.0374    0.4285   -0.8071 S   0  0  0  0  0  0  0  0  0  0  0  0
    3.2990    0.0151   -0.6313 C   0  0  0  0  0  0  0  0  0  0  0  0
    2.3217    0.8457   -1.1902 C   0  0  0  0  0  0  0  0  0  0  0  0
    0.9684    0.5116   -1.0793 C   0  0  0  0  0  0  0  0  0  0  0  0
    0.5788   -0.6564   -0.3985 C   0  0  0  0  0  0  0  0  0  0  0  0
   -0.8020   -1.0458   -0.3109 N   0  0  0  0  0  0  0  0  0  0  0  0
   -1.8892   -0.1151   -0.1859 C   0  0  0  0  0  0  0  0  0  0  0  0
   -1.6772    1.1745    0.2204 N   0  0  0  0  0  0  0  0  0  0  0  0
   -2.7141    2.0595    0.3710 C   0  0  0  0  0  0  0  0  0  0  0  0
   -4.0016    1.6682    0.1245 N   0  0  0  0  0  0  0  0  0  0  0  0
   -4.2171    0.3900   -0.2695 C   0  0  0  0  0  0  0  0  0  0  0  0
   -5.4037   -0.1707   -0.5592 N   0  0  0  0  0  0  0  0  0  0  0  0
   -5.0483   -1.4403   -0.8975 C   0  0  0  0  0  0  0  0  0  0  0  0
   -3.7125   -1.6706   -0.8261 N   0  0  0  0  0  0  0  0  0  0  0  0
   -3.2080   -0.4978   -0.4238 C   0  0  0  0  0  0  0  0  0  0  0  0
    1.5664   -1.4945    0.1410 C   0  0  0  0  0  0  0  0  0  0  0  0
    2.9190   -1.1580    0.0300 C   0  0  0  0  0  0  0  0  0  0  0  0
    4.3185    2.1985    0.7098 H   0  0  0  0  0  0  0  0  0  0  0  0
    2.6102    1.7438   -1.7216 H   0  0  0  0  0  0  0  0  0  0  0  0
    0.2327    1.1486   -1.5516 H   0  0  0  0  0  0  0  0  0  0  0  0
   -1.0167   -2.0659   -0.2645 H   0  0  0  0  0  0  0  0  0  0  0  0
   -2.5121    3.0734    0.6891 H   0  0  0  0  0  0  0  0  0  0  0  0
   -5.7634   -2.1931   -1.1995 H   0  0  0  0  0  0  0  0  0  0  0  0
   -3.2067   -2.5575   -1.0435 H   0  0  0  0  0  0  0  0  0  0  0  0
    1.2858   -2.4081    0.6500 H   0  0  0  0  0  0  0  0  0  0  0  0
    3.6705   -1.8127    0.4529 H   0  0  0  0  0  0  0  0  0  0  0  0
  1  2  1  0
  2  3  1  0
  2  4  1  0
  4  5  1  0
  5  6  2  0
  6  7  1  0
  7  8  2  0
  8  9  1  0
  9 10  1  0
 10 11  2  0
 11 12  1  0
 12 13  2  0
 13 14  1  0
 14 15  1  0
 15 16  2  0
 16 17  1  0
 17 18  1  0
  8 19  1  0
 19 20  2  0
 20  5  1  0
 18 10  1  0
 18 14  2  0
  2 21  1  0
  6 22  1  0
  7 23  1  0
  9 24  1  0
 12 25  1  0
 16 26  1  0
 17 27  1  0
 19 28  1  0
 20 29  1  0
M  END
>  <IX_DELTA_E>  (99)
0.000

>  <IX_CONF_ID>  (99)
1

>  <IX_Q>  (99)
-0.3400
0.8300
-0.3400
-0.3315
0.1015
-0.1500
-0.1500
0.1000
-0.6000
0.4100
-0.6200
0.4700
-0.5660
0.4832
-0.5653
0.0365
0.0332
-0.1516
-0.1500
-0.1500
0.0800
0.1500
0.1500
0.4000
0.1500
0.1500
0.2700
0.1500
0.1500

>  <IX_ALOGP>  (99)
0.42020
-0.20510
0.42020
0.64820
0.18930
0.15810
0.15810
0.46190
-0.51880
0.46190
-0.32390
0.15810
-0.32390
0.29550
-0.32390
0.15810
-0.32390
0.29550
0.15810
0.15810
0.12300
0.12300
0.12300
0.21420
0.12300
0.12300
0.21420
0.12300
0.12300

$$$$
756690
     RDKit          3D

 25 27  0  0  0  0  0  0  0  0999 V2000
    2.3715    2.3240   -0.4824 C   0  0  0  0  0  0  0  0  0  0  0  0
    1.0698    1.9065   -0.4775 N   0  0  0  0  0  0  0  0  0  0  0  0
    0.7115    0.6204   -0.1736 C   0  0  0  0  0  0  0  0  0  0  0  0
   -0.6896    0.2719   -0.1577 N   0  0  0  0  0  0  0  0  0  0  0  0
   -1.7263    1.2654   -0.3966 C   0  0  0  0  0  0  0  0  0  0  0  0
   -3.0359    0.5928   -0.0235 C   0  0  0  0  0  0  0  0  0  0  0  0
   -2.7508   -0.9033   -0.0439 C   0  0  0  0  0  0  0  0  0  0  0  0
   -1.2430   -1.0430    0.1214 C   0  0  0  0  0  0  0  0  0  0  0  0
    1.7621   -0.2714    0.1218 C   0  0  0  0  0  0  0  0  0  0  0  0
    1.7706   -1.5740    0.4591 N   0  0  0  0  0  0  0  0  0  0  0  0
    3.0833   -1.8664    0.6245 C   0  0  0  0  0  0  0  0  0  0  0  0
    3.9101   -0.8089    0.4200 N   0  0  0  0  0  0  0  0  0  0  0  0
    3.0489    0.1701    0.0987 C   0  0  0  0  0  0  0  0  0  0  0  0
    3.3769    1.4503   -0.1886 N   0  0  0  0  0  0  0  0  0  0  0  0
    2.6005    3.3549   -0.7127 H   0  0  0  0  0  0  0  0  0  0  0  0
   -1.5627    2.1697    0.2298 H   0  0  0  0  0  0  0  0  0  0  0  0
   -1.7316    1.5499   -1.4718 H   0  0  0  0  0  0  0  0  0  0  0  0
   -3.8453    0.8668   -0.7322 H   0  0  0  0  0  0  0  0  0  0  0  0
   -3.3324    0.8981    1.0044 H   0  0  0  0  0  0  0  0  0  0  0  0
   -3.2955   -1.4280    0.7691 H   0  0  0  0  0  0  0  0  0  0  0  0
   -3.0600   -1.3252   -1.0229 H   0  0  0  0  0  0  0  0  0  0  0  0
   -0.8525   -1.7875   -0.6101 H   0  0  0  0  0  0  0  0  0  0  0  0
   -1.0058   -1.3314    1.1699 H   0  0  0  0  0  0  0  0  0  0  0  0
    0.9876   -2.2506    0.5766 H   0  0  0  0  0  0  0  0  0  0  0  0
    3.4387   -2.8512    0.8981 H   0  0  0  0  0  0  0  0  0  0  0  0
  1  2  2  0
  2  3  1  0
  3  4  1  0
  4  5  1  0
  5  6  1  0
  6  7  1  0
  7  8  1  0
  3  9  2  0
  9 10  1  0
 10 11  1  0
 11 12  2  0
 12 13  1  0
 13 14  2  0
 14  1  1  0
  8  4  1  0
 13  9  1  0
  1 15  1  0
  5 16  1  0
  5 17  1  0
  6 18  1  0
  6 19  1  0
  7 20  1  0
  7 21  1  0
  8 22  1  0
  8 23  1  0
 10 24  1  0
 11 25  1  0
M  END
>  <IX_DELTA_E>  (113)
0.000

>  <IX_CONF_ID>  (113)
1

>  <IX_Q>  (113)
0.4700
-0.6200
0.4100
-0.8382
0.2091
-0.1600
-0.1600
0.2091
-0.1516
0.0332
0.0365
-0.5653
0.4832
-0.5660
0.1500
0.0800
0.0800
0.0800
0.0800
0.0800
0.0800
0.0800
0.0800
0.2700
0.1500

>  <IX_ALOGP>  (113)
0.15810
-0.32390
0.46190
-0.44580
-0.20350
0.14410
0.14410
-0.20350
0.29550
-0.32390
0.15810
-0.32390
0.29550
-0.32390
0.12300
0.12300
0.12300
0.12300
0.12300
0.12300
0.12300
0.12300
0.12300
0.21420
0.12300

$$$$
756700
     RDKit          3D

 29 31  0  0  0  0  0  0  0  0999 V2000
   -4.1618    0.7236   -0.3421 O   0  0  0  0  0  0  0  0  0  0  0  0
   -2.9956    0.1055    0.1366 C   0  0  0  0  0  0  0  0  0  0  0  0
   -2.1474   -0.3617   -1.0585 C   0  0  0  0  0  0  0  0  0  0  0  0
   -0.8254   -0.9806   -0.5870 C   0  0  0  0  0  0  0  0  0  0  0  0
   -0.1410   -0.0554    0.3237 N   0  0  0  0  0  0  0  0  0  0  0  0
    1.1825    0.4268    0.0415 C   0  0  0  0  0  0  0  0  0  0  0  0
    1.4597    1.7647    0.0967 N   0  0  0  0  0  0  0  0  0  0  0  0
    2.7206    2.2453   -0.1508 C   0  0  0  0  0  0  0  0  0  0  0  0
    3.7463    1.3885   -0.4455 N   0  0  0  0  0  0  0  0  0  0  0  0
    3.4770    0.0628   -0.4979 C   0  0  0  0  0  0  0  0  0  0  0  0
    4.3617   -0.9271   -0.7155 N   0  0  0  0  0  0  0  0  0  0  0  0
    3.5868   -2.0383   -0.5895 C   0  0  0  0  0  0  0  0  0  0  0  0
    2.2872   -1.7683   -0.3023 N   0  0  0  0  0  0  0  0  0  0  0  0
    2.2387   -0.4313   -0.2632 C   0  0  0  0  0  0  0  0  0  0  0  0
   -0.8848    0.4620    1.4782 C   0  0  0  0  0  0  0  0  0  0  0  0
   -2.1998    1.0938    1.0088 C   0  0  0  0  0  0  0  0  0  0  0  0
   -4.7921    0.7788    0.4244 H   0  0  0  0  0  0  0  0  0  0  0  0
   -3.2693   -0.7884    0.7482 H   0  0  0  0  0  0  0  0  0  0  0  0
   -2.7169   -1.1131   -1.6458 H   0  0  0  0  0  0  0  0  0  0  0  0
   -1.9279    0.5017   -1.7261 H   0  0  0  0  0  0  0  0  0  0  0  0
   -1.0296   -1.9368   -0.0560 H   0  0  0  0  0  0  0  0  0  0  0  0
   -0.1977   -1.2012   -1.4789 H   0  0  0  0  0  0  0  0  0  0  0  0
    2.9071    3.3081   -0.1045 H   0  0  0  0  0  0  0  0  0  0  0  0
    3.9742   -3.0437   -0.6928 H   0  0  0  0  0  0  0  0  0  0  0  0
    1.5190   -2.4554   -0.1351 H   0  0  0  0  0  0  0  0  0  0  0  0
   -0.2892    1.2199    2.0332 H   0  0  0  0  0  0  0  0  0  0  0  0
   -1.1007   -0.3778    2.1763 H   0  0  0  0  0  0  0  0  0  0  0  0
   -2.8043    1.3797    1.8978 H   0  0  0  0  0  0  0  0  0  0  0  0
   -1.9772    2.0181    0.4261 H   0  0  0  0  0  0  0  0  0  0  0  0
  1  2  1  0
  2  3  1  0
  3  4  1  0
  4  5  1  0
  5  6  1  0
  6  7  2  0
  7  8  1  0
  8  9  2  0
  9 10  1  0
 10 11  1  0
 11 12  2  0
 12 13  1  0
 13 14  1  0
  5 15  1  0
 15 16  1  0
 16  2  1  0
 14  6  1  0
 14 10  2  0
  1 17  1  0
  2 18  1  0
  3 19  1  0
  3 20  1  0
  4 21  1  0
  4 22  1  0
  8 23  1  0
 12 24  1  0
 13 25  1  0
 15 26  1  0
 15 27  1  0
 16 28  1  0
 16 29  1  0
M  END
>  <IX_DELTA_E>  (115)
0.000

>  <IX_CONF_ID>  (115)
1

>  <IX_Q>  (115)
-0.6800
0.2000
-0.1600
0.2091
-0.8382
0.4100
-0.6200
0.4700
-0.5660
0.4832
-0.5653
0.0365
0.0332
-0.1516
0.2091
-0.1600
0.4000
0.0800
0.0800
0.0800
0.0800
0.0800
0.1500
0.1500
0.2700
0.0800
0.0800
0.0800
0.0800

>  <IX_ALOGP>  (115)
-0.28930
-0.20510
0.14410
-0.20350
-0.44580
0.46190
-0.32390
0.15810
-0.32390
0.29550
-0.32390
0.15810
-0.32390
0.29550
-0.20350
0.14410
-0.26770
0.12300
0.12300
0.12300
0.12300
0.12300
0.12300
0.12300
0.21420
0.12300
0.12300
0.12300
0.12300

$$$$
870804
     RDKit          3D

 38 40  0  0  0  0  0  0  0  0999 V2000
   -5.3833    0.1316    0.5150 C   0  0  0  0  0  0  0  0  0  0  0  0
   -3.8909   -0.0773    0.1819 C   0  0  0  0  0  0  0  0  0  0  0  0
   -3.7561   -0.2913   -1.3456 C   0  0  0  0  0  0  0  0  0  0  0  0
   -3.0971    1.1741    0.6330 C   0  0  0  0  0  0  0  0  0  0  0  0
   -1.6258    0.9986    0.3950 C   0  0  0  0  0  0  0  0  0  0  0  0
   -0.9842    1.9214   -0.1772 O   0  0  0  0  0  0  0  0  0  0  0  0
   -0.9800   -0.2960    0.7331 C   0  0  0  0  0  0  0  0  0  0  0  0
    0.3583   -0.4417    0.8313 C   0  0  0  0  0  0  0  0  0  0  0  0
    1.2655    0.6713    0.8292 N   0  0  0  0  0  0  0  0  0  0  0  0
    2.6463    0.5430    0.4462 C   0  0  0  0  0  0  0  0  0  0  0  0
    3.5863    1.5079    0.8982 C   0  0  0  0  0  0  0  0  0  0  0  0
    4.9438    1.4219    0.5339 C   0  0  0  0  0  0  0  0  0  0  0  0
    5.3226    0.3725   -0.2964 C   0  0  0  0  0  0  0  0  0  0  0  0
    6.5403    0.0902   -0.7853 N   0  0  0  0  0  0  0  0  0  0  0  0
    6.4434   -0.9939   -1.5479 N   0  0  0  0  0  0  0  0  0  0  0  0
    5.1517   -1.4081   -1.5447 C   0  0  0  0  0  0  0  0  0  0  0  0
    4.4258   -0.5489   -0.7488 C   0  0  0  0  0  0  0  0  0  0  0  0
    3.0779   -0.5052   -0.4060 C   0  0  0  0  0  0  0  0  0  0  0  0
   -1.8696   -1.4791    0.8863 C   0  0  0  0  0  0  0  0  0  0  0  0
   -1.3786   -2.6339    1.0305 O   0  0  0  0  0  0  0  0  0  0  0  0
   -3.3706   -1.3219    0.9497 C   0  0  0  0  0  0  0  0  0  0  0  0
   -5.9804   -0.7602    0.2254 H   0  0  0  0  0  0  0  0  0  0  0  0
   -5.5258    0.3054    1.6044 H   0  0  0  0  0  0  0  0  0  0  0  0
   -5.7855    1.0115   -0.0312 H   0  0  0  0  0  0  0  0  0  0  0  0
   -4.1108    0.6063   -1.8969 H   0  0  0  0  0  0  0  0  0  0  0  0
   -2.7022   -0.4835   -1.6393 H   0  0  0  0  0  0  0  0  0  0  0  0
   -4.3621   -1.1638   -1.6708 H   0  0  0  0  0  0  0  0  0  0  0  0
   -3.4635    2.0793    0.0997 H   0  0  0  0  0  0  0  0  0  0  0  0
   -3.2495    1.3426    1.7219 H   0  0  0  0  0  0  0  0  0  0  0  0
    0.7771   -1.4321    0.9687 H   0  0  0  0  0  0  0  0  0  0  0  0
    0.9581    1.5686    1.2687 H   0  0  0  0  0  0  0  0  0  0  0  0
    3.2651    2.3212    1.5360 H   0  0  0  0  0  0  0  0  0  0  0  0
    5.6635    2.1508    0.8812 H   0  0  0  0  0  0  0  0  0  0  0  0
    7.4254    0.6172   -0.6105 H   0  0  0  0  0  0  0  0  0  0  0  0
    4.7779   -2.2702   -2.0810 H   0  0  0  0  0  0  0  0  0  0  0  0
    2.3926   -1.2446   -0.7986 H   0  0  0  0  0  0  0  0  0  0  0  0
   -3.8542   -2.2397    0.5462 H   0  0  0  0  0  0  0  0  0  0  0  0
   -3.6512   -1.2444    2.0244 H   0  0  0  0  0  0  0  0  0  0  0  0
  1  2  1  0
  2  3  1  0
  2  4  1  0
  4  5  1  0
  5  6  2  0
  5  7  1  0
  7  8  2  3
  8  9  1  0
  9 10  1  0
 10 11  2  0
 11 12  1  0
 12 13  2  0
 13 14  1  0
 14 15  1  0
 15 16  2  0
 16 17  1  0
 17 18  2  0
  7 19  1  0
 19 20  2  0
 19 21  1  0
 21  2  1  0
 18 10  1  0
 17 13  1  0
  1 22  1  0
  1 23  1  0
  1 24  1  0
  3 25  1  0
  3 26  1  0
  3 27  1  0
  4 28  1  0
  4 29  1  0
  8 30  1  0
  9 31  1  0
 11 32  1  0
 12 33  1  0
 14 34  1  0
 16 35  1  0
 18 36  1  0
 21 37  1  0
 21 38  1  0
M  END
>  <IX_DELTA_E>  (117)
0.000

>  <IX_CONF_ID>  (117)
1

>  <IX_Q>  (117)
-0.2400
0.0000
-0.2400
-0.0990
0.4946
-0.5700
0.0288
-0.0500
-0.6000
0.1000
-0.1500
-0.1500
-0.1516
0.2996
-0.7068
0.1388
0.0000
-0.1500
0.4946
-0.5700
-0.0990
0.0800
0.0800
0.0800
0.0800
0.0800
0.0800
0.0800
0.0800
0.1500
0.4000
0.1500
0.1500
0.2700
0.1500
0.1500
0.0800
0.0800

>  <IX_ALOGP>  (117)
0.14410
0.00000
0.14410
0.14410
-0.27830
-0.15260
0.15510
0.15510
-0.51880
0.46190
0.15810
0.15810
0.29550
-0.32390
-0.32390
0.15810
0.29550
0.15810
-0.27830
-0.15260
0.14410
0.12300
0.12300
0.12300
0.12300
0.12300
0.12300
0.12300
0.12300
0.12300
0.21420
0.12300
0.12300
0.21420
0.12300
0.12300
0.12300
0.12300

$$$$
975176
     RDKit          3D

 31 32  0  0  0  0  0  0  0  0999 V2000
   -1.7458    1.4044    1.8583 C   0  0  0  0  0  0  0  0  0  0  0  0
   -1.7476    1.7242    0.3669 C   0  0  0  0  0  0  0  0  0  0  0  0
   -1.3567    0.5862   -0.3968 O   0  0  0  0  0  0  0  0  0  0  0  0
   -2.1661   -0.5394   -0.5874 C   0  0  0  0  0  0  0  0  0  0  0  0
   -3.3527   -0.5520   -0.1630 O   0  0  0  0  0  0  0  0  0  0  0  0
   -1.6552   -1.6957   -1.3429 C   0  0  0  0  0  0  0  0  0  0  0  0
   -2.4482   -2.5761   -1.9769 N   0  0  0  0  0  0  0  0  0  0  0  0
   -1.6168   -3.3761   -2.6707 C   0  0  0  0  0  0  0  0  0  0  0  0
   -0.3178   -3.0515   -2.5051 N   0  0  0  0  0  0  0  0  0  0  0  0
   -0.3397   -2.0006   -1.6588 C   0  0  0  0  0  0  0  0  0  0  0  0
    0.8844   -1.3381   -1.1796 C   0  0  0  0  0  0  0  0  0  0  0  0
    1.9034   -1.3217   -1.9216 O   0  0  0  0  0  0  0  0  0  0  0  0
    0.9544   -0.7987    0.1485 N   0  0  0  0  0  0  0  0  0  0  0  0
    1.8620    0.2445    0.5380 C   0  0  0  0  0  0  0  0  0  0  0  0
    2.2907    0.3254    1.8697 C   0  0  0  0  0  0  0  0  0  0  0  0
    3.1495    1.3566    2.2560 C   0  0  0  0  0  0  0  0  0  0  0  0
    3.5519    2.2853    1.3462 N   0  0  0  0  0  0  0  0  0  0  0  0
    3.1377    2.2435    0.0519 C   0  0  0  0  0  0  0  0  0  0  0  0
    2.2826    1.2268   -0.3767 C   0  0  0  0  0  0  0  0  0  0  0  0
   -0.7368    1.0626    2.1719 H   0  0  0  0  0  0  0  0  0  0  0  0
   -2.0102    2.3161    2.4329 H   0  0  0  0  0  0  0  0  0  0  0  0
   -2.4879    0.6103    2.0875 H   0  0  0  0  0  0  0  0  0  0  0  0
   -2.7533    2.0761    0.0459 H   0  0  0  0  0  0  0  0  0  0  0  0
   -1.0178    2.5405    0.1794 H   0  0  0  0  0  0  0  0  0  0  0  0
   -3.4921   -2.6079   -1.9772 H   0  0  0  0  0  0  0  0  0  0  0  0
   -1.9529   -4.1842   -3.3061 H   0  0  0  0  0  0  0  0  0  0  0  0
    0.3206   -1.2025    0.8771 H   0  0  0  0  0  0  0  0  0  0  0  0
    1.9658   -0.4070    2.5994 H   0  0  0  0  0  0  0  0  0  0  0  0
    3.4931    1.4213    3.2797 H   0  0  0  0  0  0  0  0  0  0  0  0
    3.4678    3.0041   -0.6456 H   0  0  0  0  0  0  0  0  0  0  0  0
    1.9340    1.2236   -1.4006 H   0  0  0  0  0  0  0  0  0  0  0  0
  1  2  1  0
  2  3  1  0
  3  4  1  0
  4  5  2  0
  4  6  1  0
  6  7  1  0
  7  8  1  0
  8  9  2  0
  9 10  1  0
 10 11  1  0
 11 12  2  0
 11 13  1  0
 13 14  1  0
 14 15  2  0
 15 16  1  0
 16 17  2  0
 17 18  1  0
 18 19  2  0
 10  6  2  0
 19 14  1  0
  1 20  1  0
  1 21  1  0
  1 22  1  0
  2 23  1  0
  2 24  1  0
  7 25  1  0
  8 26  1  0
 13 27  1  0
 15 28  1  0
 16 29  1  0
 18 30  1  0
 19 31  1  0
M  END
>  <IX_DELTA_E>  (133)
0.000

>  <IX_CONF_ID>  (133)
1

>  <IX_Q>  (133)
-0.2400
0.1200
-0.4300
0.8050
-0.5700
-0.2366
0.0332
0.0365
-0.5653
0.1412
0.7160
-0.5700
-0.5470
0.1170
-0.1500
0.1600
-0.6200
0.1600
-0.1500
0.0800
0.0800
0.0800
0.0800
0.0800
0.2700
0.1500
0.3700
0.1500
0.1500
0.1500
0.1500

>  <IX_ALOGP>  (133)
0.14410
-0.20350
-0.06840
-0.27830
0.11290
0.13600
-0.32390
0.15810
-0.32390
0.13600
-0.27830
0.11290
-0.51880
0.46190
0.15810
0.15810
-0.32390
0.15810
0.15810
0.12300
0.12300
0.12300
0.12300
0.12300
0.21420
0.12300
0.21420
0.12300
0.12300
0.12300
0.12300

$$$$
977261
     RDKit          3D

 37 39  0  0  0  0  0  0  0  0999 V2000
    0.0893    0.7065    0.7548 C   0  0  0  0  0  0  0  0  0  0  0  0
   -0.0422    0.7423   -0.7662 C   0  0  0  0  0  0  0  0  0  0  0  0
   -1.1177   -0.1494   -1.2191 N   0  0  0  0  0  0  0  0  0  0  0  0
   -1.0087   -1.2721   -1.9598 C   0  0  0  0  0  0  0  0  0  0  0  0
    0.4912   -1.8475   -2.7672 S   0  0  0  0  0  0  0  0  0  0  0  0
    0.9617   -3.0504   -1.4823 C   0  0  0  0  0  0  0  0  0  0  0  0
    1.8617   -2.4175   -0.4677 C   0  0  0  0  0  0  0  0  0  0  0  0
    1.5858   -2.5280    0.7602 O   0  0  0  0  0  0  0  0  0  0  0  0
    3.0619   -1.7539   -0.8906 N   0  0  0  0  0  0  0  0  0  0  0  0
    3.8968   -0.9803   -0.0192 C   0  0  0  0  0  0  0  0  0  0  0  0
    3.6016   -0.7058    1.2706 N   0  0  0  0  0  0  0  0  0  0  0  0
    4.5723    0.0402    1.8574 C   0  0  0  0  0  0  0  0  0  0  0  0
    5.6416    0.3728    1.0328 C   0  0  0  0  0  0  0  0  0  0  0  0
    5.3584   -0.2954   -0.4842 S   0  0  0  0  0  0  0  0  0  0  0  0
   -2.2000   -1.8717   -2.1246 N   0  0  0  0  0  0  0  0  0  0  0  0
   -3.0964   -1.1406   -1.4823 N   0  0  0  0  0  0  0  0  0  0  0  0
   -2.4429   -0.0968   -0.9459 C   0  0  0  0  0  0  0  0  0  0  0  0
   -3.1330    0.9698   -0.2012 C   0  0  0  0  0  0  0  0  0  0  0  0
   -3.9845    0.6422    0.8594 C   0  0  0  0  0  0  0  0  0  0  0  0
   -4.6353    1.6668    1.5567 C   0  0  0  0  0  0  0  0  0  0  0  0
   -4.4633    2.9629    1.1856 N   0  0  0  0  0  0  0  0  0  0  0  0
   -3.6677    3.3025    0.1366 C   0  0  0  0  0  0  0  0  0  0  0  0
   -2.9867    2.3120   -0.5735 C   0  0  0  0  0  0  0  0  0  0  0  0
    0.9863    1.2906    1.0748 H   0  0  0  0  0  0  0  0  0  0  0  0
    0.2176   -0.3409    1.0940 H   0  0  0  0  0  0  0  0  0  0  0  0
   -0.8155    1.1422    1.2390 H   0  0  0  0  0  0  0  0  0  0  0  0
   -0.2431    1.7809   -1.0940 H   0  0  0  0  0  0  0  0  0  0  0  0
    0.9294    0.4355   -1.2154 H   0  0  0  0  0  0  0  0  0  0  0  0
    0.0603   -3.4754   -0.9893 H   0  0  0  0  0  0  0  0  0  0  0  0
    1.5135   -3.8806   -1.9746 H   0  0  0  0  0  0  0  0  0  0  0  0
    3.3498   -1.8491   -1.8905 H   0  0  0  0  0  0  0  0  0  0  0  0
    4.5073    0.3522    2.8904 H   0  0  0  0  0  0  0  0  0  0  0  0
    6.5011    0.9672    1.3179 H   0  0  0  0  0  0  0  0  0  0  0  0
   -4.1246   -0.3925    1.1624 H   0  0  0  0  0  0  0  0  0  0  0  0
   -5.2775    1.4324    2.3918 H   0  0  0  0  0  0  0  0  0  0  0  0
   -3.5694    4.3419   -0.1500 H   0  0  0  0  0  0  0  0  0  0  0  0
   -2.3790    2.5872   -1.4257 H   0  0  0  0  0  0  0  0  0  0  0  0
  1  2  1  0
  2  3  1  0
  3  4  1  0
  4  5  1  0
  5  6  1  0
  6  7  1  0
  7  8  2  0
  7  9  1  0
  9 10  1  0
 10 11  2  0
 11 12  1  0
 12 13  2  0
 13 14  1  0
  4 15  2  0
 15 16  1  0
 16 17  2  0
 17 18  1  0
 18 19  2  0
 19 20  1  0
 20 21  2  0
 21 22  1  0
 22 23  2  0
 17  3  1  0
 23 18  1  0
 14 10  1  0
  1 24  1  0
  1 25  1  0
  1 26  1  0
  2 27  1  0
  2 28  1  0
  6 29  1  0
  6 30  1  0
  9 31  1  0
 12 32  1  0
 13 33  1  0
 19 34  1  0
 20 35  1  0
 22 36  1  0
 23 37  1  0
M  END
>  <IX_DELTA_E>  (146)
0.000

>  <IX_CONF_ID>  (146)
1

>  <IX_Q>  (146)
-0.2400
0.0956
0.0476
0.2425
-0.2860
0.1310
0.5690
-0.5700
-0.4940
0.4421
-0.5653
0.0772
-0.1100
-0.0800
-0.3381
-0.3381
0.1335
0.0530
-0.1500
0.1600
-0.6200
0.1600
-0.1500
0.0800
0.0800
0.0800
0.0800
0.0800
0.0800
0.0800
0.3700
0.1500
0.1500
0.1500
0.1500
0.1500
0.1500

>  <IX_ALOGP>  (146)
0.14410
-0.05160
-0.32390
0.18930
0.64820
-0.20350
-0.27830
-0.15260
-0.51880
0.46190
-0.32390
0.15810
0.15810
0.62370
-0.32390
-0.32390
0.27130
0.27130
0.15810
0.15810
-0.32390
0.15810
0.15810
0.12300
0.12300
0.12300
0.12300
0.12300
0.12300
0.12300
0.21420
0.12300
0.12300
0.12300
0.12300
0.12300
0.12300

$$$$
1245524
     RDKit          3D

 30 32  0  0  0  0  0  0  0  0999 V2000
   -1.6991   -2.6427   -0.6924 O   0  0  0  0  0  0  0  0  0  0  0  0
   -2.0585   -1.8711    0.2393 C   0  0  0  0  0  0  0  0  0  0  0  0
   -3.4630   -1.9506    0.7542 C   0  0  0  0  0  0  0  0  0  0  0  0
   -4.2331   -0.7349    0.3471 C   0  0  0  0  0  0  0  0  0  0  0  0
   -4.5743   -0.3832   -0.9521 C   0  0  0  0  0  0  0  0  0  0  0  0
   -5.2838    0.8207   -1.0276 C   0  0  0  0  0  0  0  0  0  0  0  0
   -5.5049    1.4155    0.2075 C   0  0  0  0  0  0  0  0  0  0  0  0
   -4.8143    0.4448    1.3936 S   0  0  0  0  0  0  0  0  0  0  0  0
   -1.1452   -0.9074    0.7918 N   0  0  0  0  0  0  0  0  0  0  0  0
    0.1833   -0.6935    0.2986 C   0  0  0  0  0  0  0  0  0  0  0  0
    0.7510   -1.4063   -0.6973 N   0  0  0  0  0  0  0  0  0  0  0  0
    1.9948   -1.0198   -0.9751 N   0  0  0  0  0  0  0  0  0  0  0  0
    2.4284    0.0043   -0.2078 C   0  0  0  0  0  0  0  0  0  0  0  0
    3.7877    0.5816   -0.3048 C   0  0  0  0  0  0  0  0  0  0  0  0
    4.6202    0.2499   -1.3884 C   0  0  0  0  0  0  0  0  0  0  0  0
    5.9102    0.7860   -1.4547 C   0  0  0  0  0  0  0  0  0  0  0  0
    6.3624    1.6080   -0.4710 N   0  0  0  0  0  0  0  0  0  0  0  0
    5.5829    1.9397    0.5902 C   0  0  0  0  0  0  0  0  0  0  0  0
    4.2812    1.4432    0.6913 C   0  0  0  0  0  0  0  0  0  0  0  0
    1.2326    0.4769    0.8907 S   0  0  0  0  0  0  0  0  0  0  0  0
   -3.4368   -2.0291    1.8602 H   0  0  0  0  0  0  0  0  0  0  0  0
   -3.9721   -2.8548    0.3596 H   0  0  0  0  0  0  0  0  0  0  0  0
   -4.3152   -0.9749   -1.8196 H   0  0  0  0  0  0  0  0  0  0  0  0
   -5.6286    1.2472   -1.9589 H   0  0  0  0  0  0  0  0  0  0  0  0
   -6.0309    2.3444    0.3763 H   0  0  0  0  0  0  0  0  0  0  0  0
   -1.4570   -0.3400    1.6075 H   0  0  0  0  0  0  0  0  0  0  0  0
    4.2780   -0.4124   -2.1786 H   0  0  0  0  0  0  0  0  0  0  0  0
    6.5525    0.5476   -2.2890 H   0  0  0  0  0  0  0  0  0  0  0  0
    5.9751    2.5883    1.3592 H   0  0  0  0  0  0  0  0  0  0  0  0
    3.6763    1.7227    1.5477 H   0  0  0  0  0  0  0  0  0  0  0  0
  1  2  2  0
  2  3  1  0
  3  4  1  0
  4  5  2  0
  5  6  1  0
  6  7  2  0
  7  8  1  0
  2  9  1  0
  9 10  1  0
 10 11  2  0
 11 12  1  0
 12 13  2  0
 13 14  1  0
 14 15  2  0
 15 16  1  0
 16 17  2  0
 17 18  1  0
 18 19  2  0
 13 20  1  0
  8  4  1  0
 20 10  1  0
 19 14  1  0
  3 21  1  0
  3 22  1  0
  5 23  1  0
  6 24  1  0
  7 25  1  0
  9 26  1  0
 15 27  1  0
 16 28  1  0
 18 29  1  0
 19 30  1  0
M  END
>  <IX_DELTA_E>  (176)
0.000

>  <IX_CONF_ID>  (176)
1

>  <IX_Q>  (176)
-0.5700
0.5690
0.0810
-0.1400
-0.1500
-0.1500
-0.1100
-0.0800
-0.4940
0.4421
-0.3381
-0.3381
0.3251
0.0530
-0.1500
0.1600
-0.6200
0.1600
-0.1500
-0.0800
0.0800
0.0800
0.1500
0.1500
0.1500
0.3700
0.1500
0.1500
0.1500
0.1500

>  <IX_ALOGP>  (176)
-0.15260
-0.27830
-0.05160
0.13600
0.15810
0.15810
0.15810
0.62370
-0.51880
0.46190
-0.32390
-0.32390
0.27130
0.27130
0.15810
0.15810
-0.32390
0.15810
0.15810
0.62370
0.12300
0.12300
0.12300
0.12300
0.12300
0.21420
0.12300
0.12300
0.12300
0.12300

$$$$
1615867
     RDKit          3D

 31 33  0  0  0  0  0  0  0  0999 V2000
    5.8892    0.3638   -0.3690 C   0  0  0  0  0  0  0  0  0  0  0  0
    5.2136    0.4849   -1.5861 C   0  0  0  0  0  0  0  0  0  0  0  0
    3.8268    0.3116   -1.6379 C   0  0  0  0  0  0  0  0  0  0  0  0
    3.1040    0.0145   -0.4751 C   0  0  0  0  0  0  0  0  0  0  0  0
    1.7147   -0.1490   -0.5773 O   0  0  0  0  0  0  0  0  0  0  0  0
    0.8586   -0.4612    0.5186 C   0  0  0  0  0  0  0  0  0  0  0  0
   -0.5793   -0.5530    0.0278 C   0  0  0  0  0  0  0  0  0  0  0  0
   -1.6841   -0.9689    1.4169 S   0  0  0  0  0  0  0  0  0  0  0  0
   -3.1640   -0.9258    0.4069 C   0  0  0  0  0  0  0  0  0  0  0  0
   -3.6118   -2.0542   -0.2187 N   0  0  0  0  0  0  0  0  0  0  0  0
   -4.7481   -2.0399   -0.9876 C   0  0  0  0  0  0  0  0  0  0  0  0
   -5.4673   -0.8859   -1.1436 N   0  0  0  0  0  0  0  0  0  0  0  0
   -5.0226    0.2323   -0.5214 C   0  0  0  0  0  0  0  0  0  0  0  0
   -5.5907    1.4495   -0.5527 N   0  0  0  0  0  0  0  0  0  0  0  0
   -4.7487    2.1808    0.2295 C   0  0  0  0  0  0  0  0  0  0  0  0
   -3.7075    1.4667    0.7278 N   0  0  0  0  0  0  0  0  0  0  0  0
   -3.9047    0.2371    0.2391 C   0  0  0  0  0  0  0  0  0  0  0  0
    3.7916   -0.1054    0.7496 C   0  0  0  0  0  0  0  0  0  0  0  0
    5.1787    0.0680    0.7971 C   0  0  0  0  0  0  0  0  0  0  0  0
    6.9627    0.4980   -0.3286 H   0  0  0  0  0  0  0  0  0  0  0  0
    5.7641    0.7137   -2.4895 H   0  0  0  0  0  0  0  0  0  0  0  0
    3.3108    0.4074   -2.5851 H   0  0  0  0  0  0  0  0  0  0  0  0
    0.9328    0.3372    1.2885 H   0  0  0  0  0  0  0  0  0  0  0  0
    1.1608   -1.4353    0.9618 H   0  0  0  0  0  0  0  0  0  0  0  0
   -0.8822    0.4232   -0.4088 H   0  0  0  0  0  0  0  0  0  0  0  0
   -0.6553   -1.3403   -0.7527 H   0  0  0  0  0  0  0  0  0  0  0  0
   -5.0793   -2.9486   -1.4711 H   0  0  0  0  0  0  0  0  0  0  0  0
   -4.8962    3.2326    0.4345 H   0  0  0  0  0  0  0  0  0  0  0  0
   -2.9359    1.8040    1.3455 H   0  0  0  0  0  0  0  0  0  0  0  0
    3.2662   -0.3336    1.6669 H   0  0  0  0  0  0  0  0  0  0  0  0
    5.7031   -0.0241    1.7394 H   0  0  0  0  0  0  0  0  0  0  0  0
  1  2  2  0
  2  3  1  0
  3  4  2  0
  4  5  1  0
  5  6  1  0
  6  7  1  0
  7  8  1  0
  8  9  1  0
  9 10  2  0
 10 11  1  0
 11 12  2  0
 12 13  1  0
 13 14  1  0
 14 15  2  0
 15 16  1  0
 16 17  1  0
  4 18  1  0
 18 19  2  0
 19  1  1  0
 17  9  1  0
 17 13  2  0
  1 20  1  0
  2 21  1  0
  3 22  1  0
  6 23  1  0
  6 24  1  0
  7 25  1  0
  7 26  1  0
 11 27  1  0
 15 28  1  0
 16 29  1  0
 18 30  1  0
 19 31  1  0
M  END
>  <IX_DELTA_E>  (191)
0.000

>  <IX_CONF_ID>  (191)
1

>  <IX_Q>  (191)
-0.1500
-0.1500
-0.1500
0.0825
-0.3625
0.1200
0.0700
-0.3315
0.4115
-0.6200
0.4700
-0.5660
0.4832
-0.5653
0.0365
0.0332
-0.1516
-0.1500
-0.1500
0.1500
0.1500
0.1500
0.0800
0.0800
0.0800
0.0800
0.1500
0.1500
0.2700
0.1500
0.1500

>  <IX_ALOGP>  (191)
0.15810
0.15810
0.15810
0.54370
-0.41950
-0.20350
-0.20350
0.64820
0.18930
-0.32390
0.15810
-0.32390
0.29550
-0.32390
0.15810
-0.32390
0.29550
0.15810
0.15810
0.12300
0.12300
0.12300
0.12300
0.12300
0.12300
0.12300
0.12300
0.12300
0.21420
0.12300
0.12300

$$$$
1987212
     RDKit          3D

 46 48  0  0  0  0  0  0  0  0999 V2000
   -2.4078    0.2500   -4.1251 C   0  0  0  0  0  0  0  0  0  0  0  0
   -2.4682    0.2103   -2.6270 C   0  0  0  0  0  0  0  0  0  0  0  0
   -3.4259   -0.5772   -1.9688 C   0  0  0  0  0  0  0  0  0  0  0  0
   -3.4783   -0.5998   -0.5716 C   0  0  0  0  0  0  0  0  0  0  0  0
   -2.5821    0.1695    0.1812 C   0  0  0  0  0  0  0  0  0  0  0  0
   -2.6987    0.1755    1.9394 S   0  0  0  0  0  0  0  0  0  0  0  0
   -4.1482    0.2588    2.3282 O   0  0  0  0  0  0  0  0  0  0  0  0
   -1.9911    1.3785    2.5007 O   0  0  0  0  0  0  0  0  0  0  0  0
   -2.0167   -1.2722    2.6144 N   0  0  0  0  0  0  0  0  0  0  0  0
   -0.6073   -1.4026    2.2377 C   0  0  0  0  0  0  0  0  0  0  0  0
    0.0657   -2.4194    3.1584 C   0  0  0  0  0  0  0  0  0  0  0  0
    1.8037   -2.7217    2.6885 S   0  0  0  0  0  0  0  0  0  0  0  0
    2.4353   -1.1802    3.3642 C   0  0  0  0  0  0  0  0  0  0  0  0
    2.6923   -0.9859    4.6714 N   0  0  0  0  0  0  0  0  0  0  0  0
    3.0636    0.2841    4.7648 N   0  0  0  0  0  0  0  0  0  0  0  0
    3.0428    0.8534    3.5684 N   0  0  0  0  0  0  0  0  0  0  0  0
    2.6629   -0.0447    2.6757 N   0  0  0  0  0  0  0  0  0  0  0  0
    2.5262    0.2138    1.2700 C   0  0  0  0  0  0  0  0  0  0  0  0
    2.9232   -0.7346    0.3164 C   0  0  0  0  0  0  0  0  0  0  0  0
    2.7711   -0.4764   -1.0478 C   0  0  0  0  0  0  0  0  0  0  0  0
    2.2489    0.7521   -1.4865 C   0  0  0  0  0  0  0  0  0  0  0  0
    2.0828    1.0095   -2.9379 C   0  0  0  0  0  0  0  0  0  0  0  0
    2.0243    2.3406   -3.4590 N   0  0  0  0  0  0  0  0  0  0  0  0
    1.9951    0.0367   -3.7372 O   0  0  0  0  0  0  0  0  0  0  0  0
    1.8686    1.7100   -0.5321 C   0  0  0  0  0  0  0  0  0  0  0  0
    2.0090    1.4434    0.8351 C   0  0  0  0  0  0  0  0  0  0  0  0
   -1.6176    0.9459   -0.4730 C   0  0  0  0  0  0  0  0  0  0  0  0
   -1.5602    0.9664   -1.8710 C   0  0  0  0  0  0  0  0  0  0  0  0
   -1.4165   -0.1092   -4.4686 H   0  0  0  0  0  0  0  0  0  0  0  0
   -3.1907   -0.3905   -4.5814 H   0  0  0  0  0  0  0  0  0  0  0  0
   -2.5592    1.2904   -4.4787 H   0  0  0  0  0  0  0  0  0  0  0  0
   -4.1361   -1.1696   -2.5332 H   0  0  0  0  0  0  0  0  0  0  0  0
   -4.2259   -1.2076   -0.0773 H   0  0  0  0  0  0  0  0  0  0  0  0
   -2.5415   -2.0816    2.2080 H   0  0  0  0  0  0  0  0  0  0  0  0
   -0.5192   -1.7370    1.1798 H   0  0  0  0  0  0  0  0  0  0  0  0
   -0.0886   -0.4288    2.3513 H   0  0  0  0  0  0  0  0  0  0  0  0
    0.0124   -2.0736    4.2128 H   0  0  0  0  0  0  0  0  0  0  0  0
   -0.4711   -3.3877    3.0866 H   0  0  0  0  0  0  0  0  0  0  0  0
    3.3702   -1.6715    0.6263 H   0  0  0  0  0  0  0  0  0  0  0  0
    3.0773   -1.2349   -1.7598 H   0  0  0  0  0  0  0  0  0  0  0  0
    2.2784    3.1671   -2.8791 H   0  0  0  0  0  0  0  0  0  0  0  0
    1.8220    2.4946   -4.4720 H   0  0  0  0  0  0  0  0  0  0  0  0
    1.4229    2.6497   -0.8291 H   0  0  0  0  0  0  0  0  0  0  0  0
    1.6879    2.1839    1.5560 H   0  0  0  0  0  0  0  0  0  0  0  0
   -0.9194    1.5429    0.0962 H   0  0  0  0  0  0  0  0  0  0  0  0
   -0.8162    1.5798   -2.3633 H   0  0  0  0  0  0  0  0  0  0  0  0
  1  2  1  0
  2  3  2  0
  3  4  1  0
  4  5  2  0
  5  6  1  0
  6  7  2  0
  6  8  2  0
  6  9  1  0
  9 10  1  0
 10 11  1  0
 11 12  1  0
 12 13  1  0
 13 14  2  0
 14 15  1  0
 15 16  2  0
 16 17  1  0
 17 18  1  0
 18 19  2  0
 19 20  1  0
 20 21  2  0
 21 22  1  0
 22 23  1  0
 22 24  2  0
 21 25  1  0
 25 26  2  0
  5 27  1  0
 27 28  2  0
 28  2  1  0
 17 13  1  0
 26 18  1  0
  1 29  1  0
  1 30  1  0
  1 31  1  0
  3 32  1  0
  4 33  1  0
  9 34  1  0
 10 35  1  0
 10 36  1  0
 11 37  1  0
 11 38  1  0
 19 39  1  0
 20 40  1  0
 23 41  1  0
 23 42  1  0
 25 43  1  0
 26 44  1  0
 27 45  1  0
 28 46  1  0
M  END
>  <IX_DELTA_E>  (212)
0.000

>  <IX_CONF_ID>  (212)
1

>  <IX_Q>  (212)
-0.0965
-0.1435
-0.1500
-0.1500
-0.0090
1.4470
-0.6500
-0.6500
-0.9137
0.1957
0.0700
-0.2860
0.2425
-0.3381
0.0000
-0.4180
0.5926
-0.0230
-0.1500
-0.1500
0.0862
0.5438
-0.8000
-0.5700
-0.1500
-0.1500
-0.1500
-0.1500
0.0800
0.0800
0.0800
0.1500
0.1500
0.4200
0.0800
0.0800
0.0800
0.0800
0.1500
0.1500
0.3700
0.3700
0.1500
0.1500
0.1500
0.1500

>  <IX_ALOGP>  (212)
0.08452
0.13600
0.15810
0.15810
0.18930
-0.00240
-0.33390
-0.33390
-0.70960
-0.20350
-0.20350
0.64820
0.18930
-0.32390
-0.32390
-0.32390
-0.32390
0.27130
0.15810
0.15810
0.13600
-0.27830
-1.01900
0.11290
0.15810
0.15810
0.15810
0.15810
0.12300
0.12300
0.12300
0.12300
0.12300
0.21420
0.12300
0.12300
0.12300
0.12300
0.12300
0.12300
0.21420
0.21420
0.12300
0.12300
0.12300
0.12300

$$$$
2155036
     RDKit          3D

 28 30  0  0  0  0  0  0  0  0999 V2000
    4.9864   -0.1547    0.3736 C   0  0  0  0  0  0  0  0  0  0  0  0
    3.5041    0.0871    0.2911 C   0  0  0  0  0  0  0  0  0  0  0  0
    3.0188    1.2879   -0.2510 C   0  0  0  0  0  0  0  0  0  0  0  0
    1.6435    1.5202   -0.3394 C   0  0  0  0  0  0  0  0  0  0  0  0
    0.7285    0.5559    0.1014 C   0  0  0  0  0  0  0  0  0  0  0  0
   -0.6810    0.8300    0.0174 N   0  0  0  0  0  0  0  0  0  0  0  0
   -1.6773   -0.1653   -0.2687 C   0  0  0  0  0  0  0  0  0  0  0  0
   -1.3323   -1.4127   -0.7125 N   0  0  0  0  0  0  0  0  0  0  0  0
   -2.2794   -2.3547   -1.0222 C   0  0  0  0  0  0  0  0  0  0  0  0
   -3.6101   -2.0637   -0.9070 N   0  0  0  0  0  0  0  0  0  0  0  0
   -3.9590   -0.8278   -0.4759 C   0  0  0  0  0  0  0  0  0  0  0  0
   -5.2075   -0.3599   -0.3084 N   0  0  0  0  0  0  0  0  0  0  0  0
   -4.9846    0.9108    0.1252 C   0  0  0  0  0  0  0  0  0  0  0  0
   -3.6695    1.2301    0.2256 N   0  0  0  0  0  0  0  0  0  0  0  0
   -3.0387    0.1140   -0.1625 C   0  0  0  0  0  0  0  0  0  0  0  0
    1.2107   -0.6358    0.6702 C   0  0  0  0  0  0  0  0  0  0  0  0
    2.5875   -0.8776    0.7570 C   0  0  0  0  0  0  0  0  0  0  0  0
    3.1329   -2.3918    1.4700 Cl  0  0  0  0  0  0  0  0  0  0  0  0
    5.2857   -0.3025    1.4336 H   0  0  0  0  0  0  0  0  0  0  0  0
    5.2509   -1.0616   -0.2110 H   0  0  0  0  0  0  0  0  0  0  0  0
    5.5648    0.7034   -0.0329 H   0  0  0  0  0  0  0  0  0  0  0  0
    3.7052    2.0489   -0.6058 H   0  0  0  0  0  0  0  0  0  0  0  0
    1.2892    2.4524   -0.7620 H   0  0  0  0  0  0  0  0  0  0  0  0
   -0.9792    1.8323    0.0369 H   0  0  0  0  0  0  0  0  0  0  0  0
   -1.9719   -3.3329   -1.3649 H   0  0  0  0  0  0  0  0  0  0  0  0
   -5.7826    1.6006    0.3693 H   0  0  0  0  0  0  0  0  0  0  0  0
   -3.2576    2.1372    0.5369 H   0  0  0  0  0  0  0  0  0  0  0  0
    0.5224   -1.3697    1.0695 H   0  0  0  0  0  0  0  0  0  0  0  0
  1  2  1  0
  2  3  2  0
  3  4  1  0
  4  5  2  0
  5  6  1  0
  6  7  1  0
  7  8  2  0
  8  9  1  0
  9 10  2  0
 10 11  1  0
 11 12  1  0
 12 13  2  0
 13 14  1  0
 14 15  1  0
  5 16  1  0
 16 17  2  0
 17 18  1  0
 17  2  1  0
 15  7  1  0
 15 11  2  0
  1 19  1  0
  1 20  1  0
  1 21  1  0
  3 22  1  0
  4 23  1  0
  6 24  1  0
  9 25  1  0
 13 26  1  0
 14 27  1  0
 16 28  1  0
M  END
>  <IX_DELTA_E>  (259)
0.000

>  <IX_CONF_ID>  (259)
1

>  <IX_Q>  (259)
-0.0965
-0.1435
-0.1500
-0.1500
0.1000
-0.6000
0.4100
-0.6200
0.4700
-0.5660
0.4832
-0.5653
0.0365
0.0332
-0.1516
-0.1500
0.1770
-0.1770
0.0800
0.0800
0.0800
0.1500
0.1500
0.4000
0.1500
0.1500
0.2700
0.1500

>  <IX_ALOGP>  (259)
0.08452
0.13600
0.15810
0.15810
0.46190
-0.51880
0.46190
-0.32390
0.15810
-0.32390
0.29550
-0.32390
0.15810
-0.32390
0.29550
0.15810
0.24500
0.68950
0.12300
0.12300
0.12300
0.12300
0.12300
0.21420
0.12300
0.12300
0.21420
0.12300

$$$$
2155070
     RDKit          3D

 36 38  0  0  0  0  0  0  0  0999 V2000
    5.6558   -0.8095    1.3357 C   0  0  0  0  0  0  0  0  0  0  0  0
    5.0812    0.1514    0.3070 C   0  0  0  0  0  0  0  0  0  0  0  0
    3.6674   -0.0165    0.2365 O   0  0  0  0  0  0  0  0  0  0  0  0
    2.8581    0.7353   -0.6231 C   0  0  0  0  0  0  0  0  0  0  0  0
    3.3767    1.5982   -1.3847 O   0  0  0  0  0  0  0  0  0  0  0  0
    1.4374    0.5113   -0.6449 N   0  0  0  0  0  0  0  0  0  0  0  0
    0.8940   -0.6796    0.0290 C   0  0  0  0  0  0  0  0  0  0  0  0
   -0.5774   -0.9021   -0.3320 C   0  0  0  0  0  0  0  0  0  0  0  0
   -1.3274    0.3506   -0.1714 N   0  0  0  0  0  0  0  0  0  0  0  0
   -2.5514    0.3797    0.5813 C   0  0  0  0  0  0  0  0  0  0  0  0
   -2.7448    1.3257    1.5509 N   0  0  0  0  0  0  0  0  0  0  0  0
   -3.9054    1.3803    2.2775 C   0  0  0  0  0  0  0  0  0  0  0  0
   -4.9168    0.4896    2.0398 N   0  0  0  0  0  0  0  0  0  0  0  0
   -4.7339   -0.4422    1.0734 C   0  0  0  0  0  0  0  0  0  0  0  0
   -5.6298   -1.3561    0.6625 N   0  0  0  0  0  0  0  0  0  0  0  0
   -4.9671   -1.9809   -0.3482 C   0  0  0  0  0  0  0  0  0  0  0  0
   -3.7231   -1.4858   -0.5690 N   0  0  0  0  0  0  0  0  0  0  0  0
   -3.5942   -0.5174    0.3486 C   0  0  0  0  0  0  0  0  0  0  0  0
   -0.7656    1.6186   -0.6583 C   0  0  0  0  0  0  0  0  0  0  0  0
    0.5505    1.4008   -1.4120 C   0  0  0  0  0  0  0  0  0  0  0  0
    5.4364   -1.8587    1.0357 H   0  0  0  0  0  0  0  0  0  0  0  0
    5.2083   -0.6085    2.3339 H   0  0  0  0  0  0  0  0  0  0  0  0
    6.7566   -0.6743    1.3956 H   0  0  0  0  0  0  0  0  0  0  0  0
    5.3234    1.1953    0.6060 H   0  0  0  0  0  0  0  0  0  0  0  0
    5.5363   -0.0577   -0.6862 H   0  0  0  0  0  0  0  0  0  0  0  0
    1.4757   -1.5803   -0.2721 H   0  0  0  0  0  0  0  0  0  0  0  0
    0.9886   -0.5466    1.1301 H   0  0  0  0  0  0  0  0  0  0  0  0
   -0.9918   -1.7027    0.3172 H   0  0  0  0  0  0  0  0  0  0  0  0
   -0.6456   -1.2344   -1.3902 H   0  0  0  0  0  0  0  0  0  0  0  0
   -4.0236    2.1393    3.0384 H   0  0  0  0  0  0  0  0  0  0  0  0
   -5.4006   -2.7859   -0.9311 H   0  0  0  0  0  0  0  0  0  0  0  0
   -3.0469   -1.7799   -1.3066 H   0  0  0  0  0  0  0  0  0  0  0  0
   -1.4943    2.1125   -1.3361 H   0  0  0  0  0  0  0  0  0  0  0  0
   -0.5765    2.2935    0.2052 H   0  0  0  0  0  0  0  0  0  0  0  0
    1.0233    2.3916   -1.5822 H   0  0  0  0  0  0  0  0  0  0  0  0
    0.3467    0.9457   -2.4058 H   0  0  0  0  0  0  0  0  0  0  0  0
  1  2  1  0
  2  3  1  0
  3  4  1  0
  4  5  2  0
  4  6  1  0
  6  7  1  0
  7  8  1  0
  8  9  1  0
  9 10  1  0
 10 11  2  0
 11 12  1  0
 12 13  2  0
 13 14  1  0
 14 15  1  0
 15 16  2  0
 16 17  1  0
 17 18  1  0
  9 19  1  0
 19 20  1  0
 20  6  1  0
 18 10  1  0
 18 14  2  0
  1 21  1  0
  1 22  1  0
  1 23  1  0
  2 24  1  0
  2 25  1  0
  7 26  1  0
  7 27  1  0
  8 28  1  0
  8 29  1  0
 12 30  1  0
 16 31  1  0
 17 32  1  0
 19 33  1  0
 19 34  1  0
 20 35  1  0
 20 36  1  0
M  END
>  <IX_DELTA_E>  (265)
0.000

>  <IX_CONF_ID>  (265)
1

>  <IX_Q>  (265)
-0.2400
0.1200
-0.4300
0.7800
-0.5700
-0.6602
0.1401
0.2091
-0.8382
0.4100
-0.6200
0.4700
-0.5660
0.4832
-0.5653
0.0365
0.0332
-0.1516
0.2091
0.1401
0.0800
0.0800
0.0800
0.0800
0.0800
0.0800
0.0800
0.0800
0.0800
0.1500
0.1500
0.2700
0.0800
0.0800
0.0800
0.0800

>  <IX_ALOGP>  (265)
0.14410
-0.20350
-0.06840
-0.27830
0.48330
-0.31870
-0.20350
-0.20350
-0.44580
0.46190
-0.32390
0.15810
-0.32390
0.29550
-0.32390
0.15810
-0.32390
0.29550
-0.20350
-0.20350
0.12300
0.12300
0.12300
0.12300
0.12300
0.12300
0.12300
0.12300
0.12300
0.12300
0.12300
0.21420
0.12300
0.12300
0.12300
0.12300

$$$$
2422341
     RDKit          3D

 37 40  0  0  0  0  0  0  0  0999 V2000
    2.8311    1.1971    2.1553 F   0  0  0  0  0  0  0  0  0  0  0  0
    3.5079    0.9018    1.0178 C   0  0  0  0  0  0  0  0  0  0  0  0
    4.8803    1.1678    0.9473 C   0  0  0  0  0  0  0  0  0  0  0  0
    5.5969    0.8513   -0.2117 C   0  0  0  0  0  0  0  0  0  0  0  0
    4.9428    0.2662   -1.2993 C   0  0  0  0  0  0  0  0  0  0  0  0
    3.5732   -0.0046   -1.2334 C   0  0  0  0  0  0  0  0  0  0  0  0
    2.8457    0.3132   -0.0757 C   0  0  0  0  0  0  0  0  0  0  0  0
    1.4339    0.0553   -0.0269 N   0  0  0  0  0  0  0  0  0  0  0  0
    0.9333   -1.3214   -0.1270 C   0  0  0  0  0  0  0  0  0  0  0  0
   -0.2703   -1.3658   -1.0708 C   0  0  0  0  0  0  0  0  0  0  0  0
   -1.2208   -0.3140   -0.6957 N   0  0  0  0  0  0  0  0  0  0  0  0
   -2.6243   -0.6104   -0.5895 C   0  0  0  0  0  0  0  0  0  0  0  0
   -3.2257   -1.4342   -1.5022 N   0  0  0  0  0  0  0  0  0  0  0  0
   -4.5602   -1.7429   -1.4263 C   0  0  0  0  0  0  0  0  0  0  0  0
   -5.3339   -1.2357   -0.4203 N   0  0  0  0  0  0  0  0  0  0  0  0
   -4.7407   -0.4299    0.4923 C   0  0  0  0  0  0  0  0  0  0  0  0
   -5.3108    0.1242    1.5703 N   0  0  0  0  0  0  0  0  0  0  0  0
   -4.3717    0.7947    2.2313 N   0  0  0  0  0  0  0  0  0  0  0  0
   -3.1982    0.6680    1.5596 C   0  0  0  0  0  0  0  0  0  0  0  0
   -3.4220   -0.1096    0.4391 C   0  0  0  0  0  0  0  0  0  0  0  0
   -0.7183    1.0636   -0.6331 C   0  0  0  0  0  0  0  0  0  0  0  0
    0.4898    1.1270    0.3036 C   0  0  0  0  0  0  0  0  0  0  0  0
    5.3848    1.6223    1.7917 H   0  0  0  0  0  0  0  0  0  0  0  0
    6.6590    1.0575   -0.2688 H   0  0  0  0  0  0  0  0  0  0  0  0
    5.4999    0.0277   -2.1942 H   0  0  0  0  0  0  0  0  0  0  0  0
    3.0765   -0.4466   -2.0905 H   0  0  0  0  0  0  0  0  0  0  0  0
    0.6285   -1.6672    0.8855 H   0  0  0  0  0  0  0  0  0  0  0  0
    1.7217   -2.0048   -0.5049 H   0  0  0  0  0  0  0  0  0  0  0  0
    0.0723   -1.1949   -2.1180 H   0  0  0  0  0  0  0  0  0  0  0  0
   -0.7413   -2.3738   -1.0156 H   0  0  0  0  0  0  0  0  0  0  0  0
   -5.0022   -2.3882   -2.1743 H   0  0  0  0  0  0  0  0  0  0  0  0
   -6.3079    0.0390    1.8672 H   0  0  0  0  0  0  0  0  0  0  0  0
   -2.2586    1.0846    1.8980 H   0  0  0  0  0  0  0  0  0  0  0  0
   -1.5030    1.7738   -0.2896 H   0  0  0  0  0  0  0  0  0  0  0  0
   -0.3991    1.3801   -1.6496 H   0  0  0  0  0  0  0  0  0  0  0  0
    0.9770    2.1207    0.1996 H   0  0  0  0  0  0  0  0  0  0  0  0
    0.1546    1.0081    1.3543 H   0  0  0  0  0  0  0  0  0  0  0  0
  1  2  1  0
  2  3  2  0
  3  4  1  0
  4  5  2  0
  5  6  1  0
  6  7  2  0
  7  8  1  0
  8  9  1  0
  9 10  1  0
 10 11  1  0
 11 12  1  0
 12 13  2  0
 13 14  1  0
 14 15  2  0
 15 16  1  0
 16 17  1  0
 17 18  1  0
 18 19  2  0
 19 20  1  0
 11 21  1  0
 21 22  1  0
  7  2  1  0
 22  8  1  0
 20 12  1  0
 20 16  2  0
  3 23  1  0
  4 24  1  0
  5 25  1  0
  6 26  1  0
  9 27  1  0
  9 28  1  0
 10 29  1  0
 10 30  1  0
 14 31  1  0
 17 32  1  0
 19 33  1  0
 21 34  1  0
 21 35  1  0
 22 36  1  0
 22 37  1  0
M  END
>  <IX_DELTA_E>  (277)
0.000

>  <IX_CONF_ID>  (277)
1

>  <IX_Q>  (277)
-0.1900
0.1900
-0.1500
-0.1500
-0.1500
-0.1500
0.1000
-0.8382
0.2091
0.2091
-0.8382
0.4100
-0.6200
0.4700
-0.5670
0.1054
0.2996
-0.7068
0.1388
0.0000
0.2091
0.2091
0.1500
0.1500
0.1500
0.1500
0.0800
0.0800
0.0800
0.0800
0.1500
0.2700
0.1500
0.0800
0.0800
0.0800
0.0800

>  <IX_ALOGP>  (277)
0.42020
0.00000
0.15810
0.15810
0.15810
0.15810
0.46190
-0.44580
-0.20350
-0.20350
-0.44580
0.46190
-0.32390
0.15810
-0.32390
0.29550
-0.32390
-0.32390
0.15810
0.29550
-0.20350
-0.20350
0.12300
0.12300
0.12300
0.12300
0.12300
0.12300
0.12300
0.12300
0.12300
0.21420
0.12300
0.12300
0.12300
0.12300
0.12300

$$$$
2537908
     RDKit          3D

 45 48  0  0  0  0  0  0  0  0999 V2000
    9.1483   -1.4038   -0.0216 Cl  0  0  0  0  0  0  0  0  0  0  0  0
    7.5343   -0.7210   -0.1098 C   0  0  0  0  0  0  0  0  0  0  0  0
    7.3611    0.6276   -0.4304 C   0  0  0  0  0  0  0  0  0  0  0  0
    6.0747    1.1730   -0.4975 C   0  0  0  0  0  0  0  0  0  0  0  0
    4.9513    0.3730   -0.2546 C   0  0  0  0  0  0  0  0  0  0  0  0
    3.6833    0.9709   -0.3256 O   0  0  0  0  0  0  0  0  0  0  0  0
    2.4529    0.2693   -0.1615 C   0  0  0  0  0  0  0  0  0  0  0  0
    1.2854    1.2600   -0.2722 C   0  0  0  0  0  0  0  0  0  0  0  0
   -0.0195    0.5969   -0.5163 N   0  0  0  0  0  0  0  0  0  0  0  0
   -0.4399   -0.2245    0.6465 C   0  0  0  0  0  0  0  0  0  0  0  0
   -1.7829   -0.9141    0.3804 C   0  0  0  0  0  0  0  0  0  0  0  0
   -2.7626    0.0841   -0.0386 N   0  0  0  0  0  0  0  0  0  0  0  0
   -4.0509    0.1537    0.5810 C   0  0  0  0  0  0  0  0  0  0  0  0
   -4.3000    1.0898    1.5427 N   0  0  0  0  0  0  0  0  0  0  0  0
   -5.5201    1.1786    2.1537 C   0  0  0  0  0  0  0  0  0  0  0  0
   -6.5284    0.3298    1.8068 N   0  0  0  0  0  0  0  0  0  0  0  0
   -6.2941   -0.6004    0.8506 C   0  0  0  0  0  0  0  0  0  0  0  0
   -7.3758   -1.7260    0.2443 S   0  0  0  0  0  0  0  0  0  0  0  0
   -6.2765   -2.3863   -0.8627 C   0  0  0  0  0  0  0  0  0  0  0  0
   -5.0517   -1.7255   -0.7536 C   0  0  0  0  0  0  0  0  0  0  0  0
   -5.0762   -0.7193    0.2179 C   0  0  0  0  0  0  0  0  0  0  0  0
   -2.4049    1.0034   -1.1148 C   0  0  0  0  0  0  0  0  0  0  0  0
   -1.0397    1.6314   -0.8144 C   0  0  0  0  0  0  0  0  0  0  0  0
    5.1313   -0.9928    0.0529 C   0  0  0  0  0  0  0  0  0  0  0  0
    6.4194   -1.5305    0.1304 C   0  0  0  0  0  0  0  0  0  0  0  0
    8.2222    1.2559   -0.6213 H   0  0  0  0  0  0  0  0  0  0  0  0
    5.9484    2.2194   -0.7441 H   0  0  0  0  0  0  0  0  0  0  0  0
    2.4391   -0.2136    0.8405 H   0  0  0  0  0  0  0  0  0  0  0  0
    2.3715   -0.5070   -0.9533 H   0  0  0  0  0  0  0  0  0  0  0  0
    1.2462    1.8778    0.6545 H   0  0  0  0  0  0  0  0  0  0  0  0
    1.5156    1.9468   -1.1197 H   0  0  0  0  0  0  0  0  0  0  0  0
    0.0771   -0.0214   -1.3576 H   0  0  0  0  0  0  0  0  0  0  0  0
    0.3034   -1.0228    0.8521 H   0  0  0  0  0  0  0  0  0  0  0  0
   -0.5273    0.4070    1.5582 H   0  0  0  0  0  0  0  0  0  0  0  0
   -1.6575   -1.6638   -0.4304 H   0  0  0  0  0  0  0  0  0  0  0  0
   -2.1211   -1.4426    1.2994 H   0  0  0  0  0  0  0  0  0  0  0  0
   -5.6900    1.9326    2.9111 H   0  0  0  0  0  0  0  0  0  0  0  0
   -6.4903   -3.1926   -1.5503 H   0  0  0  0  0  0  0  0  0  0  0  0
   -4.1895   -1.9610   -1.3632 H   0  0  0  0  0  0  0  0  0  0  0  0
   -3.1664    1.8085   -1.2181 H   0  0  0  0  0  0  0  0  0  0  0  0
   -2.3568    0.4407   -2.0723 H   0  0  0  0  0  0  0  0  0  0  0  0
   -0.7332    2.2315   -1.7011 H   0  0  0  0  0  0  0  0  0  0  0  0
   -1.1464    2.3282    0.0471 H   0  0  0  0  0  0  0  0  0  0  0  0
    4.2849   -1.6400    0.2389 H   0  0  0  0  0  0  0  0  0  0  0  0
    6.5512   -2.5808    0.3687 H   0  0  0  0  0  0  0  0  0  0  0  0
  1  2  1  0
  2  3  2  0
  3  4  1  0
  4  5  2  0
  5  6  1  0
  6  7  1  0
  7  8  1  0
  8  9  1  0
  9 10  1  0
 10 11  1  0
 11 12  1  0
 12 13  1  0
 13 14  2  0
 14 15  1  0
 15 16  2  0
 16 17  1  0
 17 18  1  0
 18 19  1  0
 19 20  2  0
 20 21  1  0
 12 22  1  0
 22 23  1  0
  5 24  1  0
 24 25  2  0
 25  2  1  0
 23  9  1  0
 21 13  1  0
 21 17  2  0
  3 26  1  0
  4 27  1  0
  7 28  1  0
  7 29  1  0
  8 30  1  0
  8 31  1  0
  9 32  1  0
 10 33  1  0
 10 34  1  0
 11 35  1  0
 11 36  1  0
 15 37  1  0
 19 38  1  0
 20 39  1  0
 22 40  1  0
 22 41  1  0
 23 42  1  0
 23 43  1  0
 24 44  1  0
 25 45  1  0
M  CHG  1   9   1
M  END
>  <IX_DELTA_E>  (297)
0.000

>  <IX_CONF_ID>  (297)
1

>  <IX_Q>  (297)
-0.1770
0.1770
-0.1500
-0.1500
0.0825
-0.3625
0.1200
0.3430
-0.9590
0.3430
0.2091
-0.8382
0.4100
-0.6200
0.4700
-0.5670
0.2970
-0.0800
-0.1100
-0.1500
0.0000
0.2091
0.3430
-0.1500
-0.1500
0.1500
0.1500
0.0800
0.0800
0.0800
0.0800
0.4500
0.0800
0.0800
0.0800
0.0800
0.1500
0.1500
0.1500
0.0800
0.0800
0.0800
0.0800
0.1500
0.1500

>  <IX_ALOGP>  (297)
0.68950
0.24500
0.15810
0.15810
0.54370
-0.41950
-0.20350
-0.20350
-1.95000
-0.20350
-0.20350
-0.44580
0.46190
-0.32390
0.15810
-0.32390
0.29550
0.62370
0.15810
0.15810
0.29550
-0.20350
-0.20350
0.15810
0.15810
0.12300
0.12300
0.12300
0.12300
0.12300
0.12300
0.21420
0.12300
0.12300
0.12300
0.12300
0.12300
0.12300
0.12300
0.12300
0.12300
0.12300
0.12300
0.12300
0.12300

$$$$
2597298
     RDKit          3D

 34 37  0  0  0  0  0  0  0  0999 V2000
   -0.6253   -2.0480   -0.2164 O   0  0  0  0  0  0  0  0  0  0  0  0
   -1.1192   -1.1775    0.5530 C   0  0  0  0  0  0  0  0  0  0  0  0
   -0.4180   -0.7698    1.6951 O   0  0  0  0  0  0  0  0  0  0  0  0
    0.8236   -1.3468    2.0977 C   0  0  0  0  0  0  0  0  0  0  0  0
    1.8851   -0.9911    1.1504 N   0  0  0  0  0  0  0  0  0  0  0  0
    2.4380   -1.9634    0.4191 N   0  0  0  0  0  0  0  0  0  0  0  0
    3.4080   -1.7169   -0.4599 N   0  0  0  0  0  0  0  0  0  0  0  0
    3.8752   -0.4586   -0.6480 C   0  0  0  0  0  0  0  0  0  0  0  0
    4.8933   -0.2160   -1.5772 C   0  0  0  0  0  0  0  0  0  0  0  0
    5.3827    1.0811   -1.7544 C   0  0  0  0  0  0  0  0  0  0  0  0
    4.8536    2.1380   -1.0075 C   0  0  0  0  0  0  0  0  0  0  0  0
    3.8286    1.9045   -0.0845 C   0  0  0  0  0  0  0  0  0  0  0  0
    3.3310    0.6006    0.0998 C   0  0  0  0  0  0  0  0  0  0  0  0
    2.3108    0.3036    1.0153 C   0  0  0  0  0  0  0  0  0  0  0  0
    1.7939    1.2211    1.7123 O   0  0  0  0  0  0  0  0  0  0  0  0
   -2.4503   -0.6035    0.2607 C   0  0  0  0  0  0  0  0  0  0  0  0
   -2.9720    0.4357    1.0705 C   0  0  0  0  0  0  0  0  0  0  0  0
   -4.2461    0.9741    0.8199 C   0  0  0  0  0  0  0  0  0  0  0  0
   -4.9976    0.4598   -0.2353 C   0  0  0  0  0  0  0  0  0  0  0  0
   -6.2500    0.8727   -0.5591 N   0  0  0  0  0  0  0  0  0  0  0  0
   -6.7365    0.1820   -1.6191 C   0  0  0  0  0  0  0  0  0  0  0  0
   -5.6262   -0.9632   -2.1871 S   0  0  0  0  0  0  0  0  0  0  0  0
   -4.4877   -0.5538   -1.0260 C   0  0  0  0  0  0  0  0  0  0  0  0
   -3.2258   -1.1008   -0.8105 C   0  0  0  0  0  0  0  0  0  0  0  0
    0.7143   -2.4525    2.1680 H   0  0  0  0  0  0  0  0  0  0  0  0
    1.0880   -0.9776    3.1124 H   0  0  0  0  0  0  0  0  0  0  0  0
    5.3036   -1.0289   -2.1614 H   0  0  0  0  0  0  0  0  0  0  0  0
    6.1775    1.2668   -2.4653 H   0  0  0  0  0  0  0  0  0  0  0  0
    5.2399    3.1384   -1.1427 H   0  0  0  0  0  0  0  0  0  0  0  0
    3.4307    2.7379    0.4808 H   0  0  0  0  0  0  0  0  0  0  0  0
   -2.3978    0.8322    1.8977 H   0  0  0  0  0  0  0  0  0  0  0  0
   -4.6387    1.7686    1.4423 H   0  0  0  0  0  0  0  0  0  0  0  0
   -7.7188    0.3528   -2.0377 H   0  0  0  0  0  0  0  0  0  0  0  0
   -2.8682   -1.9015   -1.4452 H   0  0  0  0  0  0  0  0  0  0  0  0
  1  2  2  0
  2  3  1  0
  3  4  1  0
  4  5  1  0
  5  6  1  0
  6  7  2  0
  7  8  1  0
  8  9  2  0
  9 10  1  0
 10 11  2  0
 11 12  1  0
 12 13  2  0
 13 14  1  0
 14 15  2  0
  2 16  1  0
 16 17  2  0
 17 18  1  0
 18 19  2  0
 19 20  1  0
 20 21  2  0
 21 22  1  0
 22 23  1  0
 23 24  2  0
 14  5  1  0
 24 16  1  0
 13  8  1  0
 23 19  1  0
  4 25  1  0
  4 26  1  0
  9 27  1  0
 10 28  1  0
 11 29  1  0
 12 30  1  0
 17 31  1  0
 18 32  1  0
 21 33  1  0
 24 34  1  0
M  END
>  <IX_DELTA_E>  (307)
0.000

>  <IX_CONF_ID>  (307)
1

>  <IX_Q>  (307)
-0.5700
0.6338
-0.4300
0.4201
-0.2981
-0.0620
-0.1790
0.1790
-0.1500
-0.1500
-0.1500
-0.1500
0.0862
0.5438
-0.5700
0.0862
-0.1500
-0.1500
0.2272
-0.5653
0.2281
-0.0800
0.0400
-0.1500
0.0800
0.0800
0.1500
0.1500
0.1500
0.1500
0.1500
0.1500
0.1500
0.1500

>  <IX_ALOGP>  (307)
0.11290
-0.27830
-0.06840
-0.20350
-0.31870
0.18360
0.18360
0.46190
0.15810
0.15810
0.15810
0.15810
0.13600
-0.27830
0.11290
0.13600
0.15810
0.15810
0.29550
-0.32390
0.15810
0.62370
0.29550
0.15810
0.12300
0.12300
0.12300
0.12300
0.12300
0.12300
0.12300
0.12300
0.12300
0.12300

$$$$
2901964
     RDKit          3D

 29 31  0  0  0  0  0  0  0  0999 V2000
   -4.6376    0.3218   -1.6777 C   0  0  0  0  0  0  0  0  0  0  0  0
   -4.2844   -0.9940   -1.4532 C   0  0  0  0  0  0  0  0  0  0  0  0
   -3.6831   -1.0977   -0.2906 O   0  0  0  0  0  0  0  0  0  0  0  0
   -3.6246    0.0950    0.2575 C   0  0  0  0  0  0  0  0  0  0  0  0
   -2.9807    0.3790    1.5783 C   0  0  0  0  0  0  0  0  0  0  0  0
   -1.6259    0.8854    1.3791 N   0  0  0  0  0  0  0  0  0  0  0  0
   -0.5444    0.0500    0.9472 C   0  0  0  0  0  0  0  0  0  0  0  0
    0.6917    0.5284    0.7026 N   0  0  0  0  0  0  0  0  0  0  0  0
    1.5587   -0.4510    0.3162 C   0  0  0  0  0  0  0  0  0  0  0  0
    2.9796   -0.1419   -0.0023 C   0  0  0  0  0  0  0  0  0  0  0  0
    3.4711    1.1633    0.1845 C   0  0  0  0  0  0  0  0  0  0  0  0
    4.8042    1.4567   -0.1133 C   0  0  0  0  0  0  0  0  0  0  0  0
    5.6289    0.4825   -0.5802 N   0  0  0  0  0  0  0  0  0  0  0  0
    5.1919   -0.7900   -0.7716 C   0  0  0  0  0  0  0  0  0  0  0  0
    3.8649   -1.1248   -0.4878 C   0  0  0  0  0  0  0  0  0  0  0  0
    0.9957   -1.7325    0.2710 C   0  0  0  0  0  0  0  0  0  0  0  0
   -0.6205   -1.6154    0.7176 S   0  0  0  0  0  0  0  0  0  0  0  0
   -4.2109    1.0283   -0.5736 C   0  0  0  0  0  0  0  0  0  0  0  0
   -5.1484    0.7176   -2.5441 H   0  0  0  0  0  0  0  0  0  0  0  0
   -4.4635   -1.8236   -2.1247 H   0  0  0  0  0  0  0  0  0  0  0  0
   -3.5833    1.1387    2.1216 H   0  0  0  0  0  0  0  0  0  0  0  0
   -2.9592   -0.5405    2.2033 H   0  0  0  0  0  0  0  0  0  0  0  0
   -1.4408    1.9010    1.5518 H   0  0  0  0  0  0  0  0  0  0  0  0
    2.8341    1.9535    0.5593 H   0  0  0  0  0  0  0  0  0  0  0  0
    5.1850    2.4616    0.0284 H   0  0  0  0  0  0  0  0  0  0  0  0
    5.8747   -1.5470   -1.1447 H   0  0  0  0  0  0  0  0  0  0  0  0
    3.5470   -2.1413   -0.6593 H   0  0  0  0  0  0  0  0  0  0  0  0
    1.4908   -2.6555    0.0074 H   0  0  0  0  0  0  0  0  0  0  0  0
   -4.3110    2.0923   -0.4027 H   0  0  0  0  0  0  0  0  0  0  0  0
  1  2  2  0
  2  3  1  0
  3  4  1  0
  4  5  1  0
  5  6  1  0
  6  7  1  0
  7  8  2  0
  8  9  1  0
  9 10  1  0
 10 11  2  0
 11 12  1  0
 12 13  2  0
 13 14  1  0
 14 15  2  0
  9 16  2  0
 16 17  1  0
  4 18  2  0
 18  1  1  0
 17  7  1  0
 15 10  1  0
  1 19  1  0
  2 20  1  0
  5 21  1  0
  5 22  1  0
  6 23  1  0
 11 24  1  0
 12 25  1  0
 14 26  1  0
 15 27  1  0
 16 28  1  0
 18 29  1  0
M  END
>  <IX_DELTA_E>  (319)
0.000

>  <IX_CONF_ID>  (319)
1

>  <IX_Q>  (319)
-0.1500
-0.0100
-0.2800
-0.0400
0.3891
-0.8531
0.4621
-0.5653
0.1732
0.0540
-0.1500
0.1600
-0.6200
0.1600
-0.1500
-0.1100
-0.0800
-0.1500
0.1500
0.1500
0.0800
0.0800
0.4000
0.1500
0.1500
0.1500
0.1500
0.1500
0.1500

>  <IX_ALOGP>  (319)
0.15810
0.15810
0.15520
0.13600
-0.05160
-0.51880
0.46190
-0.32390
0.27130
0.27130
0.15810
0.15810
-0.32390
0.15810
0.15810
0.15810
0.62370
0.15810
0.12300
0.12300
0.12300
0.12300
0.21420
0.12300
0.12300
0.12300
0.12300
0.12300
0.12300

$$$$
2998662
     RDKit          3D

 34 35  0  0  0  0  0  0  0  0999 V2000
    0.0740   -2.9609    1.0509 C   0  0  0  0  0  0  0  0  0  0  0  0
    0.4483   -1.5264    1.4199 C   0  0  0  0  0  0  0  0  0  0  0  0
    1.5129   -1.0872    0.5769 O   0  0  0  0  0  0  0  0  0  0  0  0
    2.2594    0.0750    0.8192 C   0  0  0  0  0  0  0  0  0  0  0  0
    2.0707    0.7432    1.8748 O   0  0  0  0  0  0  0  0  0  0  0  0
    3.2757    0.5103   -0.1618 C   0  0  0  0  0  0  0  0  0  0  0  0
    4.1443    1.5778    0.1255 C   0  0  0  0  0  0  0  0  0  0  0  0
    5.0951    1.9682   -0.8210 C   0  0  0  0  0  0  0  0  0  0  0  0
    5.1757    1.3212   -2.0142 N   0  0  0  0  0  0  0  0  0  0  0  0
    4.3486    0.2868   -2.3213 C   0  0  0  0  0  0  0  0  0  0  0  0
    3.3861   -0.1387   -1.4028 C   0  0  0  0  0  0  0  0  0  0  0  0
   -0.7439   -0.6207    1.2606 C   0  0  0  0  0  0  0  0  0  0  0  0
   -1.2001   -0.0155    2.2684 O   0  0  0  0  0  0  0  0  0  0  0  0
   -1.3192   -0.4109   -0.0396 N   0  0  0  0  0  0  0  0  0  0  0  0
   -2.6176    0.1646   -0.2677 C   0  0  0  0  0  0  0  0  0  0  0  0
   -2.8592    0.8650   -1.4610 C   0  0  0  0  0  0  0  0  0  0  0  0
   -4.1180    1.4183   -1.7155 C   0  0  0  0  0  0  0  0  0  0  0  0
   -5.1504    1.2676   -0.7868 C   0  0  0  0  0  0  0  0  0  0  0  0
   -4.9291    0.5515    0.3945 C   0  0  0  0  0  0  0  0  0  0  0  0
   -6.2299    0.3483    1.5524 Cl  0  0  0  0  0  0  0  0  0  0  0  0
   -3.6710   -0.0070    0.6506 C   0  0  0  0  0  0  0  0  0  0  0  0
    0.9511   -3.6259    1.1997 H   0  0  0  0  0  0  0  0  0  0  0  0
   -0.7544   -3.3208    1.6979 H   0  0  0  0  0  0  0  0  0  0  0  0
   -0.2411   -3.0229   -0.0133 H   0  0  0  0  0  0  0  0  0  0  0  0
    0.7907   -1.5269    2.4799 H   0  0  0  0  0  0  0  0  0  0  0  0
    4.0942    2.1015    1.0720 H   0  0  0  0  0  0  0  0  0  0  0  0
    5.7688    2.7877   -0.6065 H   0  0  0  0  0  0  0  0  0  0  0  0
    4.4378   -0.2065   -3.2804 H   0  0  0  0  0  0  0  0  0  0  0  0
    2.7320   -0.9619   -1.6649 H   0  0  0  0  0  0  0  0  0  0  0  0
   -0.7210   -0.6205   -0.8731 H   0  0  0  0  0  0  0  0  0  0  0  0
   -2.0676    0.9892   -2.1901 H   0  0  0  0  0  0  0  0  0  0  0  0
   -4.2925    1.9646   -2.6339 H   0  0  0  0  0  0  0  0  0  0  0  0
   -6.1219    1.7013   -0.9896 H   0  0  0  0  0  0  0  0  0  0  0  0
   -3.5287   -0.5895    1.5516 H   0  0  0  0  0  0  0  0  0  0  0  0
  1  2  1  0
  2  3  1  0
  3  4  1  0
  4  5  2  0
  4  6  1  0
  6  7  2  0
  7  8  1  0
  8  9  2  0
  9 10  1  0
 10 11  2  0
  2 12  1  0
 12 13  2  0
 12 14  1  0
 14 15  1  0
 15 16  2  0
 16 17  1  0
 17 18  2  0
 18 19  1  0
 19 20  1  0
 19 21  2  0
 11  6  1  0
 21 15  1  0
  1 22  1  0
  1 23  1  0
  1 24  1  0
  2 25  1  0
  7 26  1  0
  8 27  1  0
 10 28  1  0
 11 29  1  0
 14 30  1  0
 16 31  1  0
 17 32  1  0
 18 33  1  0
 21 34  1  0
M  END
>  <IX_DELTA_E>  (328)
0.000

>  <IX_CONF_ID>  (328)
1

>  <IX_Q>  (328)
-0.2400
0.2610
-0.4300
0.6338
-0.5700
0.0862
-0.1500
0.1600
-0.6200
0.1600
-0.1500
0.5690
-0.5700
-0.5470
0.1170
-0.1500
-0.1500
-0.1500
0.1770
-0.1770
-0.1500
0.0800
0.0800
0.0800
0.0800
0.1500
0.1500
0.1500
0.1500
0.3700
0.1500
0.1500
0.1500
0.1500

>  <IX_ALOGP>  (328)
0.14410
-0.20510
-0.06840
-0.27830
0.11290
0.13600
0.15810
0.15810
-0.32390
0.15810
0.15810
-0.27830
-0.15260
-0.51880
0.46190
0.15810
0.15810
0.15810
0.24500
0.68950
0.15810
0.12300
0.12300
0.12300
0.12300
0.12300
0.12300
0.12300
0.12300
0.21420
0.12300
0.12300
0.12300
0.12300

$$$$
3236615
     RDKit          3D

 31 33  0  0  0  0  0  0  0  0999 V2000
   -5.4087   -1.1380   -0.0616 C   0  0  0  0  0  0  0  0  0  0  0  0
   -4.3481   -0.1398    0.3709 C   0  0  0  0  0  0  0  0  0  0  0  0
   -3.0533   -0.6741    0.1243 O   0  0  0  0  0  0  0  0  0  0  0  0
   -1.8852    0.0444    0.3895 C   0  0  0  0  0  0  0  0  0  0  0  0
   -1.9460    1.2160    0.8515 O   0  0  0  0  0  0  0  0  0  0  0  0
   -0.5834   -0.5891    0.1298 C   0  0  0  0  0  0  0  0  0  0  0  0
   -0.4354   -1.8945   -0.1617 N   0  0  0  0  0  0  0  0  0  0  0  0
    0.8639   -2.1155   -0.3013 N   0  0  0  0  0  0  0  0  0  0  0  0
    1.5595   -1.0076   -0.0919 N   0  0  0  0  0  0  0  0  0  0  0  0
    2.9841   -0.8991   -0.2658 C   0  0  0  0  0  0  0  0  0  0  0  0
    3.6618    0.2637   -0.2926 N   0  0  0  0  0  0  0  0  0  0  0  0
    4.8985   -0.0560   -0.5563 O   0  0  0  0  0  0  0  0  0  0  0  0
    5.0922   -1.3374   -0.7174 N   0  0  0  0  0  0  0  0  0  0  0  0
    3.8881   -1.9024   -0.5456 C   0  0  0  0  0  0  0  0  0  0  0  0
    3.6509   -3.3077   -0.6414 N   0  0  0  0  0  0  0  0  0  0  0  0
    0.6769   -0.0238    0.1856 C   0  0  0  0  0  0  0  0  0  0  0  0
    0.9950    1.3864    0.4408 C   0  0  0  0  0  0  0  0  0  0  0  0
    0.5770    2.4570   -0.3342 C   0  0  0  0  0  0  0  0  0  0  0  0
    1.0147    3.6917    0.1612 C   0  0  0  0  0  0  0  0  0  0  0  0
    1.7617    3.5936    1.3287 C   0  0  0  0  0  0  0  0  0  0  0  0
    1.8854    1.9686    1.7401 S   0  0  0  0  0  0  0  0  0  0  0  0
   -5.3256   -1.3340   -1.1540 H   0  0  0  0  0  0  0  0  0  0  0  0
   -5.2746   -2.0865    0.4989 H   0  0  0  0  0  0  0  0  0  0  0  0
   -6.4173   -0.7319    0.1616 H   0  0  0  0  0  0  0  0  0  0  0  0
   -4.4628    0.0819    1.4542 H   0  0  0  0  0  0  0  0  0  0  0  0
   -4.4786    0.8027   -0.2010 H   0  0  0  0  0  0  0  0  0  0  0  0
    4.4206   -3.9440   -0.9581 H   0  0  0  0  0  0  0  0  0  0  0  0
    2.7338   -3.7319   -0.3832 H   0  0  0  0  0  0  0  0  0  0  0  0
   -0.0157    2.3520   -1.2335 H   0  0  0  0  0  0  0  0  0  0  0  0
    0.7848    4.6338   -0.3135 H   0  0  0  0  0  0  0  0  0  0  0  0
    2.1856    4.4216    1.8814 H   0  0  0  0  0  0  0  0  0  0  0  0
  1  2  1  0
  2  3  1  0
  3  4  1  0
  4  5  2  0
  4  6  1  0
  6  7  1  0
  7  8  2  0
  8  9  1  0
  9 10  1  0
 10 11  2  0
 11 12  1  0
 12 13  1  0
 13 14  2  0
 14 15  1  0
  9 16  1  0
 16 17  1  0
 17 18  2  0
 18 19  1  0
 19 20  2  0
 20 21  1  0
 16  6  2  0
 21 17  1  0
 14 10  1  0
  1 22  1  0
  1 23  1  0
  1 24  1  0
  2 25  1  0
  2 26  1  0
 15 27  1  0
 15 28  1  0
 18 29  1  0
 19 30  1  0
 20 31  1  0
M  END
>  <IX_DELTA_E>  (344)
0.000

>  <IX_CONF_ID>  (344)
1

>  <IX_Q>  (344)
-0.2400
0.1200
-0.4300
0.8060
-0.5700
0.1412
-0.2272
-0.4180
0.6466
0.2118
-0.4097
0.2418
-0.4097
0.3718
-0.8830
-0.1516
0.0400
-0.1500
-0.1500
-0.1100
-0.0800
0.0800
0.0800
0.0800
0.0800
0.0800
0.4000
0.4000
0.1500
0.1500
0.1500

>  <IX_ALOGP>  (344)
0.14410
-0.20350
-0.06840
-0.27830
0.11290
0.13600
-0.32390
-0.32390
-0.32390
0.27130
-0.32390
0.15520
-0.32390
0.46190
-1.02700
0.27130
0.27130
0.15810
0.15810
0.15810
0.62370
0.12300
0.12300
0.12300
0.12300
0.12300
0.21420
0.21420
0.12300
0.12300
0.12300

$$$$
3244716
     RDKit          3D

 42 45  0  0  0  0  0  0  0  0999 V2000
   -6.3115   -1.0177    1.9776 C   0  0  0  0  0  0  0  0  0  0  0  0
   -5.0557   -1.6863    2.0351 O   0  0  0  0  0  0  0  0  0  0  0  0
   -3.8904   -1.2396    1.3946 C   0  0  0  0  0  0  0  0  0  0  0  0
   -3.8502   -0.0464    0.6503 C   0  0  0  0  0  0  0  0  0  0  0  0
   -2.6728    0.3495    0.0100 C   0  0  0  0  0  0  0  0  0  0  0  0
   -1.5241   -0.4521    0.0857 C   0  0  0  0  0  0  0  0  0  0  0  0
   -0.2706   -0.0332   -0.5680 C   0  0  0  0  0  0  0  0  0  0  0  0
    0.8746    0.0519    0.1739 N   0  0  0  0  0  0  0  0  0  0  0  0
    2.0555    0.5214   -0.3470 C   0  0  0  0  0  0  0  0  0  0  0  0
    3.2341    0.6018    0.4821 N   0  0  0  0  0  0  0  0  0  0  0  0
    4.4538    1.2317   -0.0439 C   0  0  0  0  0  0  0  0  0  0  0  0
    5.6877    0.7596    0.7313 C   0  0  0  0  0  0  0  0  0  0  0  0
    5.4906    0.8904    2.1232 O   0  0  0  0  0  0  0  0  0  0  0  0
    4.4656    0.0093    2.5365 C   0  0  0  0  0  0  0  0  0  0  0  0
    3.1156    0.4130    1.9342 C   0  0  0  0  0  0  0  0  0  0  0  0
    2.1015    0.9392   -1.6503 N   0  0  0  0  0  0  0  0  0  0  0  0
    0.9794    0.8534   -2.4018 C   0  0  0  0  0  0  0  0  0  0  0  0
    0.8677    1.1910   -3.6985 N   0  0  0  0  0  0  0  0  0  0  0  0
   -0.3824    0.9107   -4.0501 N   0  0  0  0  0  0  0  0  0  0  0  0
   -1.0491    0.3931   -2.9943 C   0  0  0  0  0  0  0  0  0  0  0  0
   -2.3654   -0.1546   -3.0818 N   0  0  0  0  0  0  0  0  0  0  0  0
   -0.1927    0.3598   -1.9077 C   0  0  0  0  0  0  0  0  0  0  0  0
   -1.5558   -1.6236    0.8552 C   0  0  0  0  0  0  0  0  0  0  0  0
   -2.7317   -2.0160    1.4990 C   0  0  0  0  0  0  0  0  0  0  0  0
   -6.6609   -0.9575    0.9258 H   0  0  0  0  0  0  0  0  0  0  0  0
   -7.0546   -1.5917    2.5693 H   0  0  0  0  0  0  0  0  0  0  0  0
   -6.2221    0.0034    2.4063 H   0  0  0  0  0  0  0  0  0  0  0  0
   -4.7224    0.5825    0.5624 H   0  0  0  0  0  0  0  0  0  0  0  0
   -2.6641    1.2784   -0.5504 H   0  0  0  0  0  0  0  0  0  0  0  0
    4.3622    2.3349    0.0434 H   0  0  0  0  0  0  0  0  0  0  0  0
    4.6008    0.9738   -1.1151 H   0  0  0  0  0  0  0  0  0  0  0  0
    6.5558    1.3874    0.4382 H   0  0  0  0  0  0  0  0  0  0  0  0
    5.9398   -0.2899    0.4588 H   0  0  0  0  0  0  0  0  0  0  0  0
    4.7087   -1.0459    2.2778 H   0  0  0  0  0  0  0  0  0  0  0  0
    4.3844    0.0550    3.6414 H   0  0  0  0  0  0  0  0  0  0  0  0
    2.3739   -0.3838    2.1744 H   0  0  0  0  0  0  0  0  0  0  0  0
    2.7827    1.3672    2.3945 H   0  0  0  0  0  0  0  0  0  0  0  0
   -0.7592    1.0386   -5.0159 H   0  0  0  0  0  0  0  0  0  0  0  0
   -2.7228   -0.8208   -2.3655 H   0  0  0  0  0  0  0  0  0  0  0  0
   -2.9616    0.0377   -3.9198 H   0  0  0  0  0  0  0  0  0  0  0  0
   -0.6740   -2.2419    0.9476 H   0  0  0  0  0  0  0  0  0  0  0  0
   -2.7404   -2.9338    2.0734 H   0  0  0  0  0  0  0  0  0  0  0  0
  1  2  1  0
  2  3  1  0
  3  4  2  0
  4  5  1  0
  5  6  2  0
  6  7  1  0
  7  8  2  0
  8  9  1  0
  9 10  1  0
 10 11  1  0
 11 12  1  0
 12 13  1  0
 13 14  1  0
 14 15  1  0
  9 16  2  0
 16 17  1  0
 17 18  2  0
 18 19  1  0
 19 20  1  0
 20 21  1  0
 20 22  2  0
  6 23  1  0
 23 24  2  0
 24  3  1  0
 22  7  1  0
 15 10  1  0
 22 17  1  0
  1 25  1  0
  1 26  1  0
  1 27  1  0
  4 28  1  0
  5 29  1  0
 11 30  1  0
 11 31  1  0
 12 32  1  0
 12 33  1  0
 14 34  1  0
 14 35  1  0
 15 36  1  0
 15 37  1  0
 19 38  1  0
 21 39  1  0
 21 40  1  0
 23 41  1  0
 24 42  1  0
M  END
>  <IX_DELTA_E>  (352)
0.000

>  <IX_CONF_ID>  (352)
1

>  <IX_Q>  (352)
0.0400
-0.3625
0.0825
-0.1500
-0.1500
0.0000
0.3100
-0.6200
0.7200
-0.8382
0.2091
0.1200
-0.5600
0.1200
0.2091
-0.5660
0.5448
-0.7068
0.2996
-0.0676
-0.8840
0.0000
-0.1500
-0.1500
0.0800
0.0800
0.0800
0.1500
0.1500
0.0800
0.0800
0.0800
0.0800
0.0800
0.0800
0.0800
0.0800
0.2700
0.4000
0.4000
0.1500
0.1500

>  <IX_ALOGP>  (352)
-0.20350
-0.41950
0.54370
0.15810
0.15810
0.27130
0.27130
-0.32390
0.46190
-0.44580
-0.20350
-0.20350
-0.06840
-0.20350
-0.20350
-0.32390
0.29550
-0.32390
-0.32390
0.46190
-1.02700
0.29550
0.15810
0.15810
0.12300
0.12300
0.12300
0.12300
0.12300
0.12300
0.12300
0.12300
0.12300
0.12300
0.12300
0.12300
0.12300
0.21420
0.21420
0.21420
0.12300
0.12300

$$$$
5000908
     RDKit          3D

 32 35  0  0  0  0  0  0  0  0999 V2000
    0.3699   -2.8384   -0.4357 C   0  0  0  0  0  0  0  0  0  0  0  0
    0.9426   -1.7348    0.4567 C   0  0  0  0  0  0  0  0  0  0  0  0
    2.3949   -1.3579    0.0520 C   0  0  0  0  0  0  0  0  0  0  0  0
    2.3047    0.0992   -0.2319 C   0  0  0  0  0  0  0  0  0  0  0  0
    3.3423    0.9707   -0.5626 C   0  0  0  0  0  0  0  0  0  0  0  0
    3.0510    2.3360   -0.7177 C   0  0  0  0  0  0  0  0  0  0  0  0
    1.7377    2.8058   -0.5270 C   0  0  0  0  0  0  0  0  0  0  0  0
    0.7094    1.9102   -0.1869 C   0  0  0  0  0  0  0  0  0  0  0  0
    1.0251    0.5482   -0.0646 C   0  0  0  0  0  0  0  0  0  0  0  0
    0.1538   -0.5056    0.3196 N   0  0  0  0  0  0  0  0  0  0  0  0
   -1.1553   -0.3328    0.8794 C   0  0  0  0  0  0  0  0  0  0  0  0
   -1.4320   -0.7748    2.1448 N   0  0  0  0  0  0  0  0  0  0  0  0
   -2.6783   -0.6324    2.6991 C   0  0  0  0  0  0  0  0  0  0  0  0
   -3.6891   -0.0490    1.9886 N   0  0  0  0  0  0  0  0  0  0  0  0
   -3.4219    0.3824    0.7332 C   0  0  0  0  0  0  0  0  0  0  0  0
   -4.2942    0.9352   -0.1249 N   0  0  0  0  0  0  0  0  0  0  0  0
   -3.5286    1.1155   -1.2376 C   0  0  0  0  0  0  0  0  0  0  0  0
   -2.2461    0.6937   -1.0950 N   0  0  0  0  0  0  0  0  0  0  0  0
   -2.2004    0.2458    0.1654 C   0  0  0  0  0  0  0  0  0  0  0  0
    0.9233   -3.7894   -0.2646 H   0  0  0  0  0  0  0  0  0  0  0  0
   -0.7005   -3.0057   -0.1945 H   0  0  0  0  0  0  0  0  0  0  0  0
    0.4566   -2.5499   -1.5069 H   0  0  0  0  0  0  0  0  0  0  0  0
    0.9275   -2.0745    1.5160 H   0  0  0  0  0  0  0  0  0  0  0  0
    2.7438   -1.8977   -0.8545 H   0  0  0  0  0  0  0  0  0  0  0  0
    3.0953   -1.5393    0.8920 H   0  0  0  0  0  0  0  0  0  0  0  0
    4.3533    0.6074   -0.6734 H   0  0  0  0  0  0  0  0  0  0  0  0
    3.8461    3.0310   -0.9587 H   0  0  0  0  0  0  0  0  0  0  0  0
    1.5219    3.8604   -0.6349 H   0  0  0  0  0  0  0  0  0  0  0  0
   -0.2923    2.2736   -0.0154 H   0  0  0  0  0  0  0  0  0  0  0  0
   -2.8656   -0.9909    3.7023 H   0  0  0  0  0  0  0  0  0  0  0  0
   -3.9127    1.5438   -2.1545 H   0  0  0  0  0  0  0  0  0  0  0  0
   -1.4820    0.7141   -1.8041 H   0  0  0  0  0  0  0  0  0  0  0  0
  1  2  1  0
  2  3  1  0
  3  4  1  0
  4  5  2  0
  5  6  1  0
  6  7  2  0
  7  8  1  0
  8  9  2  0
  9 10  1  0
 10 11  1  0
 11 12  2  0
 12 13  1  0
 13 14  2  0
 14 15  1  0
 15 16  1  0
 16 17  2  0
 17 18  1  0
 18 19  1  0
 10  2  1  0
 19 11  1  0
  9  4  1  0
 19 15  2  0
  1 20  1  0
  1 21  1  0
  1 22  1  0
  2 23  1  0
  3 24  1  0
  3 25  1  0
  5 26  1  0
  6 27  1  0
  7 28  1  0
  8 29  1  0
 13 30  1  0
 17 31  1  0
 18 32  1  0
M  END
>  <IX_DELTA_E>  (354)
0.000

>  <IX_CONF_ID>  (354)
1

>  <IX_Q>  (354)
-0.2400
0.2891
-0.0165
-0.1435
-0.1500
-0.1500
-0.1500
-0.1500
0.1000
-0.5691
0.4100
-0.6200
0.4700
-0.5660
0.4832
-0.5653
0.0365
0.0332
-0.1516
0.0800
0.0800
0.0800
0.0800
0.0800
0.0800
0.1500
0.1500
0.1500
0.1500
0.1500
0.1500
0.2700

>  <IX_ALOGP>  (354)
0.14410
-0.20510
-0.05160
0.13600
0.15810
0.15810
0.15810
0.15810
0.46190
-0.44580
0.46190
-0.32390
0.15810
-0.32390
0.29550
-0.32390
0.15810
-0.32390
0.29550
0.12300
0.12300
0.12300
0.12300
0.12300
0.12300
0.12300
0.12300
0.12300
0.12300
0.12300
0.12300
0.21420

$$$$
5056270
     RDKit          3D

 37 40  0  0  0  0  0  0  0  0999 V2000
   -0.0112    0.5486   -0.0909 O   0  0  0  0  0  0  0  0  0  0  0  0
   -0.6116   -0.4430   -0.5904 C   0  0  0  0  0  0  0  0  0  0  0  0
    0.1155   -1.6145   -0.9934 N   0  0  0  0  0  0  0  0  0  0  0  0
    1.5323   -1.7713   -0.8380 C   0  0  0  0  0  0  0  0  0  0  0  0
    2.3572   -0.8060   -0.3787 N   0  0  0  0  0  0  0  0  0  0  0  0
    3.6558   -1.2214   -0.3235 C   0  0  0  0  0  0  0  0  0  0  0  0
    4.7366   -0.3132    0.1499 C   0  0  0  0  0  0  0  0  0  0  0  0
    6.0608   -0.7589    0.3247 C   0  0  0  0  0  0  0  0  0  0  0  0
    7.0401    0.1335    0.7679 C   0  0  0  0  0  0  0  0  0  0  0  0
    6.7220    1.4286    1.0230 N   0  0  0  0  0  0  0  0  0  0  0  0
    5.4564    1.8928    0.8622 C   0  0  0  0  0  0  0  0  0  0  0  0
    4.4441    1.0339    0.4299 C   0  0  0  0  0  0  0  0  0  0  0  0
    3.8548   -2.5444   -0.7386 C   0  0  0  0  0  0  0  0  0  0  0  0
    2.3663   -3.1841   -1.1938 S   0  0  0  0  0  0  0  0  0  0  0  0
   -2.1069   -0.4198   -0.7134 C   0  0  0  0  0  0  0  0  0  0  0  0
   -2.7555   -1.2857    0.3808 C   0  0  0  0  0  0  0  0  0  0  0  0
   -4.1742   -1.1136    0.3682 O   0  0  0  0  0  0  0  0  0  0  0  0
   -4.7452    0.1432    0.1517 C   0  0  0  0  0  0  0  0  0  0  0  0
   -6.1008    0.3674    0.4126 C   0  0  0  0  0  0  0  0  0  0  0  0
   -6.6432    1.6427    0.2244 C   0  0  0  0  0  0  0  0  0  0  0  0
   -5.8331    2.6895   -0.2350 C   0  0  0  0  0  0  0  0  0  0  0  0
   -4.4790    2.4620   -0.5089 C   0  0  0  0  0  0  0  0  0  0  0  0
   -3.9391    1.1842   -0.3314 C   0  0  0  0  0  0  0  0  0  0  0  0
   -2.5989    0.9231   -0.6341 O   0  0  0  0  0  0  0  0  0  0  0  0
   -0.4193   -2.4185   -1.3924 H   0  0  0  0  0  0  0  0  0  0  0  0
    6.3484   -1.7838    0.1418 H   0  0  0  0  0  0  0  0  0  0  0  0
    8.0578   -0.2058    0.8997 H   0  0  0  0  0  0  0  0  0  0  0  0
    5.2334    2.9296    1.0769 H   0  0  0  0  0  0  0  0  0  0  0  0
    3.4431    1.4256    0.3050 H   0  0  0  0  0  0  0  0  0  0  0  0
    4.7915   -3.0820   -0.7835 H   0  0  0  0  0  0  0  0  0  0  0  0
   -2.3887   -0.8308   -1.7047 H   0  0  0  0  0  0  0  0  0  0  0  0
   -2.5176   -2.3579    0.2216 H   0  0  0  0  0  0  0  0  0  0  0  0
   -2.3673   -0.9808    1.3771 H   0  0  0  0  0  0  0  0  0  0  0  0
   -6.7247   -0.4382    0.7778 H   0  0  0  0  0  0  0  0  0  0  0  0
   -7.6906    1.8209    0.4352 H   0  0  0  0  0  0  0  0  0  0  0  0
   -6.2552    3.6759   -0.3776 H   0  0  0  0  0  0  0  0  0  0  0  0
   -3.8540    3.2720   -0.8630 H   0  0  0  0  0  0  0  0  0  0  0  0
  1  2  2  0
  2  3  1  0
  3  4  1  0
  4  5  2  0
  5  6  1  0
  6  7  1  0
  7  8  2  0
  8  9  1  0
  9 10  2  0
 10 11  1  0
 11 12  2  0
  6 13  2  0
 13 14  1  0
  2 15  1  0
 15 16  1  0
 16 17  1  0
 17 18  1  0
 18 19  2  0
 19 20  1  0
 20 21  2  0
 21 22  1  0
 22 23  2  0
 23 24  1  0
 14  4  1  0
 24 15  1  0
 12  7  1  0
 23 18  1  0
  3 25  1  0
  8 26  1  0
  9 27  1  0
 11 28  1  0
 12 29  1  0
 13 30  1  0
 15 31  1  0
 16 32  1  0
 16 33  1  0
 19 34  1  0
 20 35  1  0
 21 36  1  0
 22 37  1  0
M  END
>  <IX_DELTA_E>  (357)
0.000

>  <IX_CONF_ID>  (357)
1

>  <IX_Q>  (357)
-0.5700
0.5690
-0.4940
0.4421
-0.5653
0.1732
0.0540
-0.1500
0.1600
-0.6200
0.1600
-0.1500
-0.1100
-0.0800
0.2610
0.1200
-0.3625
0.0825
-0.1500
-0.1500
-0.1500
-0.1500
0.0825
-0.3625
0.3700
0.1500
0.1500
0.1500
0.1500
0.1500
0.0800
0.0800
0.0800
0.1500
0.1500
0.1500
0.1500

>  <IX_ALOGP>  (357)
-0.15260
-0.27830
-0.51880
0.46190
-0.32390
0.27130
0.27130
0.15810
0.15810
-0.32390
0.15810
0.15810
0.15810
0.62370
-0.20510
-0.20350
-0.41950
0.54370
0.15810
0.15810
0.15810
0.15810
0.54370
-0.41950
0.21420
0.12300
0.12300
0.12300
0.12300
0.12300
0.12300
0.12300
0.12300
0.12300
0.12300
0.12300
0.12300

$$$$
5309877
     RDKit          3D

 43 47  0  0  0  0  0  0  0  0999 V2000
   -6.7147   -2.5001   -0.4869 C   0  0  0  0  0  0  0  0  0  0  0  0
   -5.3135   -2.7525   -0.5502 O   0  0  0  0  0  0  0  0  0  0  0  0
   -4.3252   -1.7580   -0.5167 C   0  0  0  0  0  0  0  0  0  0  0  0
   -4.6378   -0.3895   -0.4244 C   0  0  0  0  0  0  0  0  0  0  0  0
   -3.6155    0.5607   -0.3947 C   0  0  0  0  0  0  0  0  0  0  0  0
   -2.2688    0.1676   -0.4458 C   0  0  0  0  0  0  0  0  0  0  0  0
   -1.2074    1.1989   -0.4411 C   0  0  0  0  0  0  0  0  0  0  0  0
   -1.3748    2.4372   -0.9687 N   0  0  0  0  0  0  0  0  0  0  0  0
   -0.2068    3.0576   -0.7010 C   0  0  0  0  0  0  0  0  0  0  0  0
    0.1062    4.3816   -0.9943 C   0  0  0  0  0  0  0  0  0  0  0  0
    1.3079    4.8637   -0.5681 N   0  0  0  0  0  0  0  0  0  0  0  0
    2.1856    4.0904    0.1396 C   0  0  0  0  0  0  0  0  0  0  0  0
    1.8531    2.7627    0.4363 C   0  0  0  0  0  0  0  0  0  0  0  0
    0.6690    2.2900   -0.0309 N   0  0  0  0  0  0  0  0  0  0  0  0
    0.0602    1.1026    0.1242 C   0  0  0  0  0  0  0  0  0  0  0  0
    0.5449    0.0277    0.9400 N   0  0  0  0  0  0  0  0  0  0  0  0
    1.8841   -0.4913    0.8763 C   0  0  0  0  0  0  0  0  0  0  0  0
    2.4029   -1.2183    1.9795 C   0  0  0  0  0  0  0  0  0  0  0  0
    3.7103   -1.7358    1.9441 C   0  0  0  0  0  0  0  0  0  0  0  0
    4.4645   -1.5175    0.7955 C   0  0  0  0  0  0  0  0  0  0  0  0
    3.9728   -0.8415   -0.2715 C   0  0  0  0  0  0  0  0  0  0  0  0
    2.6838   -0.3183   -0.2797 C   0  0  0  0  0  0  0  0  0  0  0  0
    4.9304   -0.7944   -1.2653 O   0  0  0  0  0  0  0  0  0  0  0  0
    6.0970   -1.4820   -0.7880 C   0  0  0  0  0  0  0  0  0  0  0  0
    5.7556   -1.9256    0.5293 O   0  0  0  0  0  0  0  0  0  0  0  0
   -1.9615   -1.2010   -0.5436 C   0  0  0  0  0  0  0  0  0  0  0  0
   -2.9831   -2.1558   -0.5795 C   0  0  0  0  0  0  0  0  0  0  0  0
   -7.2615   -3.4689   -0.5265 H   0  0  0  0  0  0  0  0  0  0  0  0
   -7.0305   -1.8722   -1.3497 H   0  0  0  0  0  0  0  0  0  0  0  0
   -6.9651   -1.9892    0.4693 H   0  0  0  0  0  0  0  0  0  0  0  0
   -5.6665   -0.0577   -0.3683 H   0  0  0  0  0  0  0  0  0  0  0  0
   -3.8842    1.6051   -0.3241 H   0  0  0  0  0  0  0  0  0  0  0  0
   -0.5789    5.0189   -1.5407 H   0  0  0  0  0  0  0  0  0  0  0  0
    3.1299    4.5060    0.4667 H   0  0  0  0  0  0  0  0  0  0  0  0
    2.5182    2.1500    1.0268 H   0  0  0  0  0  0  0  0  0  0  0  0
   -0.1352   -0.4199    1.5991 H   0  0  0  0  0  0  0  0  0  0  0  0
    1.7901   -1.3710    2.8613 H   0  0  0  0  0  0  0  0  0  0  0  0
    4.1208   -2.2899    2.7808 H   0  0  0  0  0  0  0  0  0  0  0  0
    2.3172    0.2122   -1.1493 H   0  0  0  0  0  0  0  0  0  0  0  0
    6.9677   -0.7932   -0.7539 H   0  0  0  0  0  0  0  0  0  0  0  0
    6.3262   -2.3506   -1.4316 H   0  0  0  0  0  0  0  0  0  0  0  0
   -0.9322   -1.5323   -0.6018 H   0  0  0  0  0  0  0  0  0  0  0  0
   -2.7352   -3.2065   -0.6756 H   0  0  0  0  0  0  0  0  0  0  0  0
  1  2  1  0
  2  3  1  0
  3  4  2  0
  4  5  1  0
  5  6  2  0
  6  7  1  0
  7  8  1  0
  8  9  2  0
  9 10  1  0
 10 11  2  0
 11 12  1  0
 12 13  2  0
 13 14  1  0
 14 15  1  0
 15 16  1  0
 16 17  1  0
 17 18  2  0
 18 19  1  0
 19 20  2  0
 20 21  1  0
 21 22  2  0
 21 23  1  0
 23 24  1  0
 24 25  1  0
  6 26  1  0
 26 27  2  0
 27  3  1  0
 15  7  2  0
 22 17  1  0
 14  9  1  0
 25 20  1  0
  1 28  1  0
  1 29  1  0
  1 30  1  0
  4 31  1  0
  5 32  1  0
 10 33  1  0
 12 34  1  0
 13 35  1  0
 16 36  1  0
 18 37  1  0
 19 38  1  0
 22 39  1  0
 24 40  1  0
 24 41  1  0
 26 42  1  0
 27 43  1  0
M  END
>  <IX_DELTA_E>  (375)
0.000

>  <IX_CONF_ID>  (375)
1

>  <IX_Q>  (375)
0.0400
-0.3625
0.0825
-0.1500
-0.1500
0.0540
0.1732
-0.5653
0.1015
0.4750
-0.6210
0.0210
-0.1810
0.3342
-0.0676
-0.5840
0.1000
-0.1500
-0.1500
0.0825
0.0825
-0.1500
-0.3625
0.4000
-0.3625
-0.1500
-0.1500
0.0800
0.0800
0.0800
0.1500
0.1500
0.0600
0.1500
0.1500
0.4000
0.1500
0.1500
0.1500
0.0800
0.0800
0.1500
0.1500

>  <IX_ALOGP>  (375)
-0.20350
-0.41950
0.54370
0.15810
0.15810
0.27130
0.27130
-0.32390
0.13600
-0.27830
0.18360
0.15510
0.26400
-0.32390
0.46190
-0.51880
0.46190
0.15810
0.15810
0.54370
0.54370
0.15810
-0.41950
-0.20350
-0.41950
0.15810
0.15810
0.12300
0.12300
0.12300
0.12300
0.12300
0.12300
0.12300
0.12300
0.21420
0.12300
0.12300
0.12300
0.12300
0.12300
0.12300
0.12300

$$$$
