403120
     RDKit          3D

 40 42  0  0  0  0  0  0  0  0999 V2000
    5.8718   -1.3080    0.2474 C   0  0  0  0  0  0  0  0  0  0  0  0
    5.8405   -1.0507    1.6191 C   0  0  0  0  0  0  0  0  0  0  0  0
    4.8995   -0.1588    2.1379 C   0  0  0  0  0  0  0  0  0  0  0  0
    3.9969    0.4717    1.2707 C   0  0  0  0  0  0  0  0  0  0  0  0
    3.0239    1.3922    1.7884 N   0  0  0  0  0  0  0  0  0  0  0  0
    2.0774    2.1027    0.9300 C   0  0  0  0  0  0  0  0  0  0  0  0
    1.0733    1.1460    0.3439 C   0  0  0  0  0  0  0  0  0  0  0  0
    1.0005    0.9489   -1.0451 C   0  0  0  0  0  0  0  0  0  0  0  0
    0.0686    0.0576   -1.5828 C   0  0  0  0  0  0  0  0  0  0  0  0
   -0.7990   -0.6547   -0.7401 C   0  0  0  0  0  0  0  0  0  0  0  0
   -1.8257   -1.5808   -1.3292 C   0  0  0  0  0  0  0  0  0  0  0  0
   -2.9762   -0.8121   -1.7983 N   0  0  0  0  0  0  0  0  0  0  0  0
   -4.0690   -0.4497   -0.9409 C   0  0  0  0  0  0  0  0  0  0  0  0
   -5.0907    0.3826   -1.4189 C   0  0  0  0  0  0  0  0  0  0  0  0
   -6.1487    0.7256   -0.5745 C   0  0  0  0  0  0  0  0  0  0  0  0
   -6.1808    0.2363    0.7331 C   0  0  0  0  0  0  0  0  0  0  0  0
   -5.1470   -0.5894    1.1778 C   0  0  0  0  0  0  0  0  0  0  0  0
   -4.1251   -0.9113    0.3408 N   0  0  0  0  0  0  0  0  0  0  0  0
   -0.7366   -0.4473    0.6471 C   0  0  0  0  0  0  0  0  0  0  0  0
    0.1949    0.4452    1.1852 C   0  0  0  0  0  0  0  0  0  0  0  0
    4.0512    0.2034   -0.0649 N   0  0  0  0  0  0  0  0  0  0  0  0
    4.9572   -0.6646   -0.5889 C   0  0  0  0  0  0  0  0  0  0  0  0
    6.5959   -1.9994   -0.1634 H   0  0  0  0  0  0  0  0  0  0  0  0
    6.5426   -1.5427    2.2798 H   0  0  0  0  0  0  0  0  0  0  0  0
    4.8744    0.0394    3.2026 H   0  0  0  0  0  0  0  0  0  0  0  0
    3.0128    1.5998    2.8126 H   0  0  0  0  0  0  0  0  0  0  0  0
    2.6368    2.6415    0.1345 H   0  0  0  0  0  0  0  0  0  0  0  0
    1.5366    2.8674    1.5284 H   0  0  0  0  0  0  0  0  0  0  0  0
    1.6655    1.4830   -1.7129 H   0  0  0  0  0  0  0  0  0  0  0  0
    0.0215   -0.0758   -2.6572 H   0  0  0  0  0  0  0  0  0  0  0  0
   -2.1438   -2.3484   -0.5903 H   0  0  0  0  0  0  0  0  0  0  0  0
   -1.3818   -2.1321   -2.1863 H   0  0  0  0  0  0  0  0  0  0  0  0
   -2.9440   -0.4280   -2.7694 H   0  0  0  0  0  0  0  0  0  0  0  0
   -5.0677    0.7607   -2.4333 H   0  0  0  0  0  0  0  0  0  0  0  0
   -6.9431    1.3674   -0.9328 H   0  0  0  0  0  0  0  0  0  0  0  0
   -6.9971    0.4961    1.3940 H   0  0  0  0  0  0  0  0  0  0  0  0
   -5.1564   -0.9759    2.1888 H   0  0  0  0  0  0  0  0  0  0  0  0
   -1.4087   -0.9751    1.3124 H   0  0  0  0  0  0  0  0  0  0  0  0
    0.2322    0.5919    2.2585 H   0  0  0  0  0  0  0  0  0  0  0  0
    4.9678   -0.8544   -1.6538 H   0  0  0  0  0  0  0  0  0  0  0  0
  1  2  2  0
  2  3  1  0
  3  4  2  0
  4  5  1  0
  5  6  1  0
  6  7  1  0
  7  8  2  0
  8  9  1  0
  9 10  2  0
 10 11  1  0
 11 12  1  0
 12 13  1  0
 13 14  2  0
 14 15  1  0
 15 16  2  0
 16 17  1  0
 17 18  2  0
 10 19  1  0
 19 20  2  0
  4 21  1  0
 21 22  2  0
 22  1  1  0
 20  7  1  0
 18 13  1  0
  1 23  1  0
  2 24  1  0
  3 25  1  0
  5 26  1  0
  6 27  1  0
  6 28  1  0
  8 29  1  0
  9 30  1  0
 11 31  1  0
 11 32  1  0
 12 33  1  0
 14 34  1  0
 15 35  1  0
 16 36  1  0
 17 37  1  0
 19 38  1  0
 20 39  1  0
 22 40  1  0
M  END
>  <IX_DELTA_E>  (1)
0.000

>  <IX_CONF_ID>  (1)
1

>  <IX_Q>  (1)
-0.1500
-0.1500
-0.1500
0.4100
-0.8691
0.3526
-0.1435
-0.1500
-0.1500
-0.1435
0.3526
-0.8691
0.4100
-0.1500
-0.1500
-0.1500
0.1600
-0.6200
-0.1500
-0.1500
-0.6200
0.1600
0.1500
0.1500
0.1500
0.4000
0.0800
0.0800
0.1500
0.1500
0.0800
0.0800
0.4000
0.1500
0.1500
0.1500
0.1500
0.1500
0.1500
0.1500

>  <IX_ALOGP>  (1)
0.15810
0.15810
0.15810
0.46190
-0.51880
-0.05160
0.13600
0.15810
0.15810
0.13600
-0.05160
-0.51880
0.46190
0.15810
0.15810
0.15810
0.15810
-0.32390
0.15810
0.15810
-0.32390
0.15810
0.12300
0.12300
0.12300
0.21420
0.12300
0.12300
0.12300
0.12300
0.12300
0.12300
0.21420
0.12300
0.12300
0.12300
0.12300
0.12300
0.12300
0.12300

$$$$
20346
     RDKit          3D

 98100  0  0  0  0  0  0  0  0999 V2000
   -0.8573    1.2912   -0.0971 C   0  0  0  0  0  0  0  0  0  0  0  0
    0.3400    1.5009    0.5947 C   0  0  0  0  0  0  0  0  0  0  0  0
    1.1649    0.4164    0.9308 C   0  0  0  0  0  0  0  0  0  0  0  0
    2.5020    0.6524    1.5988 C   0  0  0  0  0  0  0  0  0  0  0  0
    3.5187    1.2081    0.6635 N   0  0  0  0  0  0  0  0  0  0  0  0
    3.7786    0.3198   -0.5090 C   0  0  0  0  0  0  0  0  0  0  0  0
    4.4538   -1.0419   -0.1803 C   0  0  0  0  0  0  0  0  0  0  0  0
    5.9074   -1.0944   -0.6810 C   0  0  0  0  0  0  0  0  0  0  0  0
    6.6062   -2.2904   -0.1808 N   0  0  0  0  0  0  0  0  0  0  0  0
    7.9464   -2.4813   -0.7780 C   0  0  0  0  0  0  0  0  0  0  0  0
    8.8668   -1.2371   -0.7368 C   0  0  0  0  0  0  0  0  0  0  0  0
    9.1151   -0.7567    0.6369 N   0  0  0  0  0  0  0  0  0  0  0  0
    9.7547    0.5752    0.6584 C   0  0  0  0  0  0  0  0  0  0  0  0
    8.7606    1.7382    0.4300 C   0  0  0  0  0  0  0  0  0  0  0  0
    7.8643    2.0149    1.6577 C   0  0  0  0  0  0  0  0  0  0  0  0
    6.8238    3.0299    1.3883 N   0  0  0  0  0  0  0  0  0  0  0  0
    5.6748    2.5341    0.5995 C   0  0  0  0  0  0  0  0  0  0  0  0
    4.7558    1.5790    1.4042 C   0  0  0  0  0  0  0  0  0  0  0  0
    0.7615   -0.8845    0.5907 C   0  0  0  0  0  0  0  0  0  0  0  0
   -0.4372   -1.0948   -0.0964 C   0  0  0  0  0  0  0  0  0  0  0  0
   -1.2496   -0.0078   -0.4581 C   0  0  0  0  0  0  0  0  0  0  0  0
   -2.4772   -0.2346   -1.3118 C   0  0  0  0  0  0  0  0  0  0  0  0
   -3.5871   -0.8861   -0.5673 N   0  0  0  0  0  0  0  0  0  0  0  0
   -4.6642   -1.3372   -1.4939 C   0  0  0  0  0  0  0  0  0  0  0  0
   -5.3662   -2.6178   -0.9818 C   0  0  0  0  0  0  0  0  0  0  0  0
   -6.6128   -3.0308   -1.7995 C   0  0  0  0  0  0  0  0  0  0  0  0
   -7.7042   -2.0352   -1.8183 N   0  0  0  0  0  0  0  0  0  0  0  0
   -8.2625   -1.7549   -0.4831 C   0  0  0  0  0  0  0  0  0  0  0  0
   -9.3611   -0.6732   -0.5700 C   0  0  0  0  0  0  0  0  0  0  0  0
   -9.7780   -0.1614    0.7509 N   0  0  0  0  0  0  0  0  0  0  0  0
   -8.7628    0.6318    1.4818 C   0  0  0  0  0  0  0  0  0  0  0  0
   -8.2894    1.8983    0.7287 C   0  0  0  0  0  0  0  0  0  0  0  0
   -6.9631    1.6953   -0.0311 C   0  0  0  0  0  0  0  0  0  0  0  0
   -5.7848    1.8391    0.8455 N   0  0  0  0  0  0  0  0  0  0  0  0
   -4.5464    1.3950    0.1616 C   0  0  0  0  0  0  0  0  0  0  0  0
   -4.1340   -0.0582    0.5484 C   0  0  0  0  0  0  0  0  0  0  0  0
   -1.4590    2.1457   -0.3790 H   0  0  0  0  0  0  0  0  0  0  0  0
    0.6385    2.5119    0.8443 H   0  0  0  0  0  0  0  0  0  0  0  0
    2.8653   -0.2797    2.0810 H   0  0  0  0  0  0  0  0  0  0  0  0
    2.3236    1.3671    2.4345 H   0  0  0  0  0  0  0  0  0  0  0  0
    3.1141    2.0964    0.2822 H   0  0  0  0  0  0  0  0  0  0  0  0
    2.8249    0.1137   -1.0412 H   0  0  0  0  0  0  0  0  0  0  0  0
    4.3682    0.8705   -1.2736 H   0  0  0  0  0  0  0  0  0  0  0  0
    4.4322   -1.2703    0.9032 H   0  0  0  0  0  0  0  0  0  0  0  0
    3.8854   -1.8547   -0.6839 H   0  0  0  0  0  0  0  0  0  0  0  0
    5.9105   -1.0839   -1.7947 H   0  0  0  0  0  0  0  0  0  0  0  0
    6.4261   -0.1883   -0.3151 H   0  0  0  0  0  0  0  0  0  0  0  0
    6.6826   -2.2495    0.8613 H   0  0  0  0  0  0  0  0  0  0  0  0
    6.0350   -3.1359   -0.4157 H   0  0  0  0  0  0  0  0  0  0  0  0
    8.4591   -3.3188   -0.2540 H   0  0  0  0  0  0  0  0  0  0  0  0
    7.8325   -2.7924   -1.8406 H   0  0  0  0  0  0  0  0  0  0  0  0
    9.8370   -1.5159   -1.2057 H   0  0  0  0  0  0  0  0  0  0  0  0
    8.4368   -0.4454   -1.3822 H   0  0  0  0  0  0  0  0  0  0  0  0
    8.2374   -0.7332    1.1947 H   0  0  0  0  0  0  0  0  0  0  0  0
    9.7597   -1.4360    1.1054 H   0  0  0  0  0  0  0  0  0  0  0  0
   10.5549    0.6260   -0.1140 H   0  0  0  0  0  0  0  0  0  0  0  0
   10.2572    0.7272    1.6400 H   0  0  0  0  0  0  0  0  0  0  0  0
    8.1559    1.5486   -0.4742 H   0  0  0  0  0  0  0  0  0  0  0  0
    9.3519    2.6565    0.2236 H   0  0  0  0  0  0  0  0  0  0  0  0
    7.4104    1.0879    2.0498 H   0  0  0  0  0  0  0  0  0  0  0  0
    8.5214    2.3918    2.4728 H   0  0  0  0  0  0  0  0  0  0  0  0
    7.2568    3.8337    0.8761 H   0  0  0  0  0  0  0  0  0  0  0  0
    6.4747    3.4036    2.3016 H   0  0  0  0  0  0  0  0  0  0  0  0
    5.0651    3.4116    0.2893 H   0  0  0  0  0  0  0  0  0  0  0  0
    6.0219    2.0608   -0.3360 H   0  0  0  0  0  0  0  0  0  0  0  0
    5.3041    0.6694    1.7135 H   0  0  0  0  0  0  0  0  0  0  0  0
    4.4862    2.1135    2.3431 H   0  0  0  0  0  0  0  0  0  0  0  0
    1.3913   -1.7334    0.8269 H   0  0  0  0  0  0  0  0  0  0  0  0
   -0.7143   -2.1036   -0.3783 H   0  0  0  0  0  0  0  0  0  0  0  0
   -2.8046    0.7106   -1.7914 H   0  0  0  0  0  0  0  0  0  0  0  0
   -2.1520   -0.8877   -2.1531 H   0  0  0  0  0  0  0  0  0  0  0  0
   -3.1776   -1.7441   -0.1258 H   0  0  0  0  0  0  0  0  0  0  0  0
   -4.2557   -1.5789   -2.5012 H   0  0  0  0  0  0  0  0  0  0  0  0
   -5.3929   -0.5233   -1.6557 H   0  0  0  0  0  0  0  0  0  0  0  0
   -4.6346   -3.4518   -1.0539 H   0  0  0  0  0  0  0  0  0  0  0  0
   -5.6181   -2.5441    0.0934 H   0  0  0  0  0  0  0  0  0  0  0  0
   -6.2911   -3.2315   -2.8458 H   0  0  0  0  0  0  0  0  0  0  0  0
   -6.9967   -3.9932   -1.3935 H   0  0  0  0  0  0  0  0  0  0  0  0
   -8.4720   -2.4223   -2.4167 H   0  0  0  0  0  0  0  0  0  0  0  0
   -7.3785   -1.1534   -2.2743 H   0  0  0  0  0  0  0  0  0  0  0  0
   -7.4631   -1.4068    0.1920 H   0  0  0  0  0  0  0  0  0  0  0  0
   -8.6949   -2.6830   -0.0477 H   0  0  0  0  0  0  0  0  0  0  0  0
  -10.2457   -1.1300   -1.0682 H   0  0  0  0  0  0  0  0  0  0  0  0
   -9.0480    0.1625   -1.2304 H   0  0  0  0  0  0  0  0  0  0  0  0
  -10.0627   -0.9712    1.3510 H   0  0  0  0  0  0  0  0  0  0  0  0
  -10.6279    0.4357    0.6161 H   0  0  0  0  0  0  0  0  0  0  0  0
   -7.9075    0.0016    1.7973 H   0  0  0  0  0  0  0  0  0  0  0  0
   -9.2276    0.9714    2.4340 H   0  0  0  0  0  0  0  0  0  0  0  0
   -9.0751    2.2286    0.0152 H   0  0  0  0  0  0  0  0  0  0  0  0
   -8.1605    2.7310    1.4545 H   0  0  0  0  0  0  0  0  0  0  0  0
   -6.9075    2.4531   -0.8438 H   0  0  0  0  0  0  0  0  0  0  0  0
   -6.9588    0.7074   -0.5191 H   0  0  0  0  0  0  0  0  0  0  0  0
   -5.9270    1.3217    1.7436 H   0  0  0  0  0  0  0  0  0  0  0  0
   -5.6860    2.8537    1.0876 H   0  0  0  0  0  0  0  0  0  0  0  0
   -3.7133    2.0705    0.4567 H   0  0  0  0  0  0  0  0  0  0  0  0
   -4.6466    1.5187   -0.9376 H   0  0  0  0  0  0  0  0  0  0  0  0
   -3.3790    0.0033    1.3652 H   0  0  0  0  0  0  0  0  0  0  0  0
   -5.0001   -0.5852    1.0039 H   0  0  0  0  0  0  0  0  0  0  0  0
  1  2  2  0
  2  3  1  0
  3  4  1  0
  4  5  1  0
  5  6  1  0
  6  7  1  0
  7  8  1  0
  8  9  1  0
  9 10  1  0
 10 11  1  0
 11 12  1  0
 12 13  1  0
 13 14  1  0
 14 15  1  0
 15 16  1  0
 16 17  1  0
 17 18  1  0
  3 19  2  0
 19 20  1  0
 20 21  2  0
 21 22  1  0
 22 23  1  0
 23 24  1  0
 24 25  1  0
 25 26  1  0
 26 27  1  0
 27 28  1  0
 28 29  1  0
 29 30  1  0
 30 31  1  0
 31 32  1  0
 32 33  1  0
 33 34  1  0
 34 35  1  0
 35 36  1  0
 21  1  1  0
 36 23  1  0
 18  5  1  0
  1 37  1  0
  2 38  1  0
  4 39  1  0
  4 40  1  0
  5 41  1  0
  6 42  1  0
  6 43  1  0
  7 44  1  0
  7 45  1  0
  8 46  1  0
  8 47  1  0
  9 48  1  0
  9 49  1  0
 10 50  1  0
 10 51  1  0
 11 52  1  0
 11 53  1  0
 12 54  1  0
 12 55  1  0
 13 56  1  0
 13 57  1  0
 14 58  1  0
 14 59  1  0
 15 60  1  0
 15 61  1  0
 16 62  1  0
 16 63  1  0
 17 64  1  0
 17 65  1  0
 18 66  1  0
 18 67  1  0
 19 68  1  0
 20 69  1  0
 22 70  1  0
 22 71  1  0
 23 72  1  0
 24 73  1  0
 24 74  1  0
 25 75  1  0
 25 76  1  0
 26 77  1  0
 26 78  1  0
 27 79  1  0
 27 80  1  0
 28 81  1  0
 28 82  1  0
 29 83  1  0
 29 84  1  0
 30 85  1  0
 30 86  1  0
 31 87  1  0
 31 88  1  0
 32 89  1  0
 32 90  1  0
 33 91  1  0
 33 92  1  0
 34 93  1  0
 34 94  1  0
 35 95  1  0
 35 96  1  0
 36 97  1  0
 36 98  1  0
M  CHG  8   5   1   9   1  12   1  16   1  23   1  27   1  30   1  34   1
M  END
>  <IX_DELTA_E>  (19)
0.000

>  <IX_CONF_ID>  (19)
1

>  <IX_Q>  (19)
-0.1500
-0.1500
-0.1435
0.4865
-0.9590
0.3430
-0.1600
0.3430
-0.9060
0.3430
0.3430
-0.9060
0.3430
-0.1600
0.3430
-0.9060
0.3430
0.3430
-0.1500
-0.1500
-0.1435
0.4865
-0.9590
0.3430
-0.1600
0.3430
-0.9060
0.3430
0.3430
-0.9060
0.3430
-0.1600
0.3430
-0.9060
0.3430
0.3430
0.1500
0.1500
0.0800
0.0800
0.4500
0.0800
0.0800
0.0800
0.0800
0.0800
0.0800
0.4500
0.4500
0.0800
0.0800
0.0800
0.0800
0.4500
0.4500
0.0800
0.0800
0.0800
0.0800
0.0800
0.0800
0.4500
0.4500
0.0800
0.0800
0.0800
0.0800
0.1500
0.1500
0.0800
0.0800
0.4500
0.0800
0.0800
0.0800
0.0800
0.0800
0.0800
0.4500
0.4500
0.0800
0.0800
0.0800
0.0800
0.4500
0.4500
0.0800
0.0800
0.0800
0.0800
0.0800
0.0800
0.4500
0.4500
0.0800
0.0800
0.0800
0.0800

>  <IX_ALOGP>  (19)
0.15810
0.15810
0.13600
-0.05160
-1.95000
-0.20350
0.14410
-0.20350
-1.95000
-0.20350
-0.20350
-1.95000
-0.20350
0.14410
-0.20350
-1.95000
-0.20350
-0.20350
0.15810
0.15810
0.13600
-0.05160
-1.95000
-0.20350
0.14410
-0.20350
-1.95000
-0.20350
-0.20350
-1.95000
-0.20350
0.14410
-0.20350
-1.95000
-0.20350
-0.20350
0.12300
0.12300
0.12300
0.12300
0.21420
0.12300
0.12300
0.12300
0.12300
0.12300
0.12300
0.21420
0.21420
0.12300
0.12300
0.12300
0.12300
0.21420
0.21420
0.12300
0.12300
0.12300
0.12300
0.12300
0.12300
0.21420
0.21420
0.12300
0.12300
0.12300
0.12300
0.12300
0.12300
0.12300
0.12300
0.21420
0.12300
0.12300
0.12300
0.12300
0.12300
0.12300
0.21420
0.21420
0.12300
0.12300
0.12300
0.12300
0.21420
0.21420
0.12300
0.12300
0.12300
0.12300
0.12300
0.12300
0.21420
0.21420
0.12300
0.12300
0.12300
0.12300

$$$$
676182
     RDKit          3D

 98102  0  0  0  0  0  0  0  0999 V2000
    9.1255    1.2957   -1.4353 C   0  0  0  0  0  0  0  0  0  0  0  0
    9.0671    1.5115   -0.0568 C   0  0  0  0  0  0  0  0  0  0  0  0
    8.5739    0.4967    0.7763 C   0  0  0  0  0  0  0  0  0  0  0  0
    8.1570   -0.6797    0.2289 N   0  0  0  0  0  0  0  0  0  0  0  0
    8.2056   -0.9147   -1.1103 C   0  0  0  0  0  0  0  0  0  0  0  0
    8.6879    0.0831   -1.9698 C   0  0  0  0  0  0  0  0  0  0  0  0
    7.6521   -2.1988   -1.6593 C   0  0  0  0  0  0  0  0  0  0  0  0
    6.2013   -2.0238   -2.1379 C   0  0  0  0  0  0  0  0  0  0  0  0
    5.2523   -1.9705   -1.0097 N   0  0  0  0  0  0  0  0  0  0  0  0
    3.9230   -1.4882   -1.4353 C   0  0  0  0  0  0  0  0  0  0  0  0
    3.8243    0.0555   -1.4210 C   0  0  0  0  0  0  0  0  0  0  0  0
    3.6915    0.6093   -0.0346 N   0  0  0  0  0  0  0  0  0  0  0  0
    2.4151    1.3529    0.1234 C   0  0  0  0  0  0  0  0  0  0  0  0
    1.2110    0.4429    0.0036 C   0  0  0  0  0  0  0  0  0  0  0  0
    0.3350    0.5620   -1.0873 C   0  0  0  0  0  0  0  0  0  0  0  0
   -0.7785   -0.2763   -1.1962 C   0  0  0  0  0  0  0  0  0  0  0  0
   -1.0479   -1.2300   -0.2027 C   0  0  0  0  0  0  0  0  0  0  0  0
   -2.2862   -2.0973   -0.2953 C   0  0  0  0  0  0  0  0  0  0  0  0
   -3.5356   -1.3204   -0.0852 N   0  0  0  0  0  0  0  0  0  0  0  0
   -3.6404   -0.8804    1.3341 C   0  0  0  0  0  0  0  0  0  0  0  0
   -4.7300    0.1904    1.5785 C   0  0  0  0  0  0  0  0  0  0  0  0
   -4.3546    1.4981    1.0031 N   0  0  0  0  0  0  0  0  0  0  0  0
   -5.2574    2.5883    1.4310 C   0  0  0  0  0  0  0  0  0  0  0  0
   -6.4283    2.8311    0.4541 C   0  0  0  0  0  0  0  0  0  0  0  0
   -7.5220    1.8075    0.5708 C   0  0  0  0  0  0  0  0  0  0  0  0
   -8.2638    1.6767    1.7533 C   0  0  0  0  0  0  0  0  0  0  0  0
   -9.2905    0.7351    1.8150 C   0  0  0  0  0  0  0  0  0  0  0  0
   -9.5682   -0.0677    0.7077 C   0  0  0  0  0  0  0  0  0  0  0  0
   -8.8079    0.0826   -0.4608 C   0  0  0  0  0  0  0  0  0  0  0  0
   -7.8308    1.0301   -0.5037 N   0  0  0  0  0  0  0  0  0  0  0  0
   -9.1180   -0.7464   -1.6816 C   0  0  0  0  0  0  0  0  0  0  0  0
   -7.8591   -1.1832   -2.4556 C   0  0  0  0  0  0  0  0  0  0  0  0
   -6.9425   -2.0090   -1.6340 N   0  0  0  0  0  0  0  0  0  0  0  0
   -5.6306   -1.3588   -1.4759 C   0  0  0  0  0  0  0  0  0  0  0  0
   -4.7270   -2.1300   -0.4930 C   0  0  0  0  0  0  0  0  0  0  0  0
   -0.1776   -1.3431    0.8934 C   0  0  0  0  0  0  0  0  0  0  0  0
    0.9450   -0.5166    0.9929 C   0  0  0  0  0  0  0  0  0  0  0  0
    4.8513    1.4849    0.2752 C   0  0  0  0  0  0  0  0  0  0  0  0
    4.9187    1.9097    1.7652 C   0  0  0  0  0  0  0  0  0  0  0  0
    6.3110    2.0859    2.2178 N   0  0  0  0  0  0  0  0  0  0  0  0
    6.9225    0.8024    2.6348 C   0  0  0  0  0  0  0  0  0  0  0  0
    8.4100    0.7162    2.2544 C   0  0  0  0  0  0  0  0  0  0  0  0
    9.4960    2.0731   -2.0932 H   0  0  0  0  0  0  0  0  0  0  0  0
    9.3870    2.4636    0.3502 H   0  0  0  0  0  0  0  0  0  0  0  0
    8.7122   -0.0749   -3.0414 H   0  0  0  0  0  0  0  0  0  0  0  0
    8.2803   -2.5264   -2.5139 H   0  0  0  0  0  0  0  0  0  0  0  0
    7.7051   -2.9977   -0.8876 H   0  0  0  0  0  0  0  0  0  0  0  0
    5.9447   -2.8875   -2.7918 H   0  0  0  0  0  0  0  0  0  0  0  0
    6.1347   -1.1091   -2.7676 H   0  0  0  0  0  0  0  0  0  0  0  0
    5.1446   -2.9403   -0.6290 H   0  0  0  0  0  0  0  0  0  0  0  0
    5.6208   -1.3725   -0.2375 H   0  0  0  0  0  0  0  0  0  0  0  0
    3.1388   -1.9065   -0.7646 H   0  0  0  0  0  0  0  0  0  0  0  0
    3.6796   -1.8619   -2.4563 H   0  0  0  0  0  0  0  0  0  0  0  0
    2.9584    0.3346   -2.0628 H   0  0  0  0  0  0  0  0  0  0  0  0
    4.6965    0.4823   -1.9641 H   0  0  0  0  0  0  0  0  0  0  0  0
    3.7026   -0.1711    0.6659 H   0  0  0  0  0  0  0  0  0  0  0  0
    2.3551    1.8344    1.1244 H   0  0  0  0  0  0  0  0  0  0  0  0
    2.3574    2.1771   -0.6240 H   0  0  0  0  0  0  0  0  0  0  0  0
    0.5151    1.2997   -1.8606 H   0  0  0  0  0  0  0  0  0  0  0  0
   -1.4393   -0.1718   -2.0496 H   0  0  0  0  0  0  0  0  0  0  0  0
   -2.2812   -2.5521   -1.3120 H   0  0  0  0  0  0  0  0  0  0  0  0
   -2.2313   -2.9428    0.4278 H   0  0  0  0  0  0  0  0  0  0  0  0
   -3.4628   -0.4762   -0.6958 H   0  0  0  0  0  0  0  0  0  0  0  0
   -3.8399   -1.7541    1.9934 H   0  0  0  0  0  0  0  0  0  0  0  0
   -2.6786   -0.4514    1.6885 H   0  0  0  0  0  0  0  0  0  0  0  0
   -5.7091   -0.1499    1.1831 H   0  0  0  0  0  0  0  0  0  0  0  0
   -4.8473    0.2883    2.6818 H   0  0  0  0  0  0  0  0  0  0  0  0
   -4.3294    1.4430   -0.0394 H   0  0  0  0  0  0  0  0  0  0  0  0
   -3.3896    1.7367    1.3329 H   0  0  0  0  0  0  0  0  0  0  0  0
   -5.6314    2.4312    2.4672 H   0  0  0  0  0  0  0  0  0  0  0  0
   -4.6724    3.5347    1.4665 H   0  0  0  0  0  0  0  0  0  0  0  0
   -6.8650    3.8313    0.6641 H   0  0  0  0  0  0  0  0  0  0  0  0
   -6.0460    2.8643   -0.5900 H   0  0  0  0  0  0  0  0  0  0  0  0
   -8.0559    2.3016    2.6136 H   0  0  0  0  0  0  0  0  0  0  0  0
   -9.8758    0.6313    2.7198 H   0  0  0  0  0  0  0  0  0  0  0  0
  -10.3738   -0.7902    0.7588 H   0  0  0  0  0  0  0  0  0  0  0  0
   -9.6894   -1.6553   -1.3959 H   0  0  0  0  0  0  0  0  0  0  0  0
   -9.7655   -0.1448   -2.3553 H   0  0  0  0  0  0  0  0  0  0  0  0
   -8.1960   -1.7698   -3.3411 H   0  0  0  0  0  0  0  0  0  0  0  0
   -7.3607   -0.2755   -2.8729 H   0  0  0  0  0  0  0  0  0  0  0  0
   -7.3544   -2.1976   -0.6874 H   0  0  0  0  0  0  0  0  0  0  0  0
   -6.7984   -2.9358   -2.1062 H   0  0  0  0  0  0  0  0  0  0  0  0
   -5.7635   -0.3221   -1.1070 H   0  0  0  0  0  0  0  0  0  0  0  0
   -5.1162   -1.2997   -2.4625 H   0  0  0  0  0  0  0  0  0  0  0  0
   -5.3253   -2.4421    0.3917 H   0  0  0  0  0  0  0  0  0  0  0  0
   -4.4387   -3.0848   -0.9905 H   0  0  0  0  0  0  0  0  0  0  0  0
   -0.3739   -2.0644    1.6769 H   0  0  0  0  0  0  0  0  0  0  0  0
    1.5969   -0.6106    1.8508 H   0  0  0  0  0  0  0  0  0  0  0  0
    4.8342    2.3975   -0.3642 H   0  0  0  0  0  0  0  0  0  0  0  0
    5.7898    0.9461    0.0246 H   0  0  0  0  0  0  0  0  0  0  0  0
    4.3905    1.1799    2.4195 H   0  0  0  0  0  0  0  0  0  0  0  0
    4.3767    2.8768    1.8743 H   0  0  0  0  0  0  0  0  0  0  0  0
    6.3111    2.7331    3.0415 H   0  0  0  0  0  0  0  0  0  0  0  0
    6.8632    2.5571    1.4643 H   0  0  0  0  0  0  0  0  0  0  0  0
    6.8371    0.6963    3.7394 H   0  0  0  0  0  0  0  0  0  0  0  0
    6.3906   -0.0750    2.1976 H   0  0  0  0  0  0  0  0  0  0  0  0
    8.9426    1.6328    2.5917 H   0  0  0  0  0  0  0  0  0  0  0  0
    8.8654   -0.1462    2.7864 H   0  0  0  0  0  0  0  0  0  0  0  0
  1  2  2  0
  2  3  1  0
  3  4  2  0
  4  5  1  0
  5  6  2  0
  5  7  1  0
  7  8  1  0
  8  9  1  0
  9 10  1  0
 10 11  1  0
 11 12  1  0
 12 13  1  0
 13 14  1  0
 14 15  2  0
 15 16  1  0
 16 17  2  0
 17 18  1  0
 18 19  1  0
 19 20  1  0
 20 21  1  0
 21 22  1  0
 22 23  1  0
 23 24  1  0
 24 25  1  0
 25 26  2  0
 26 27  1  0
 27 28  2  0
 28 29  1  0
 29 30  2  0
 29 31  1  0
 31 32  1  0
 32 33  1  0
 33 34  1  0
 34 35  1  0
 17 36  1  0
 36 37  2  0
 12 38  1  0
 38 39  1  0
 39 40  1  0
 40 41  1  0
 41 42  1  0
  6  1  1  0
 37 14  1  0
 42  3  1  0
 35 19  1  0
 30 25  1  0
  1 43  1  0
  2 44  1  0
  6 45  1  0
  7 46  1  0
  7 47  1  0
  8 48  1  0
  8 49  1  0
  9 50  1  0
  9 51  1  0
 10 52  1  0
 10 53  1  0
 11 54  1  0
 11 55  1  0
 12 56  1  0
 13 57  1  0
 13 58  1  0
 15 59  1  0
 16 60  1  0
 18 61  1  0
 18 62  1  0
 19 63  1  0
 20 64  1  0
 20 65  1  0
 21 66  1  0
 21 67  1  0
 22 68  1  0
 22 69  1  0
 23 70  1  0
 23 71  1  0
 24 72  1  0
 24 73  1  0
 26 74  1  0
 27 75  1  0
 28 76  1  0
 31 77  1  0
 31 78  1  0
 32 79  1  0
 32 80  1  0
 33 81  1  0
 33 82  1  0
 34 83  1  0
 34 84  1  0
 35 85  1  0
 35 86  1  0
 36 87  1  0
 37 88  1  0
 38 89  1  0
 38 90  1  0
 39 91  1  0
 39 92  1  0
 40 93  1  0
 40 94  1  0
 41 95  1  0
 41 96  1  0
 42 97  1  0
 42 98  1  0
M  CHG  6   9   1  12   1  19   1  22   1  33   1  40   1
M  END
>  <IX_DELTA_E>  (24)
0.000

>  <IX_CONF_ID>  (24)
1

>  <IX_Q>  (24)
-0.1500
-0.1500
0.1665
-0.6200
0.1665
-0.1500
-0.0165
0.3430
-0.9060
0.3430
0.3430
-0.9590
0.4865
-0.1435
-0.1500
-0.1500
-0.1435
0.4865
-0.9590
0.3430
0.3430
-0.9060
0.3430
-0.0165
0.1665
-0.1500
-0.1500
-0.1500
0.1665
-0.6200
-0.0165
0.3430
-0.9060
0.3430
0.3430
-0.1500
-0.1500
0.3430
0.3430
-0.9060
0.3430
-0.0165
0.1500
0.1500
0.1500
0.0800
0.0800
0.0800
0.0800
0.4500
0.4500
0.0800
0.0800
0.0800
0.0800
0.4500
0.0800
0.0800
0.1500
0.1500
0.0800
0.0800
0.4500
0.0800
0.0800
0.0800
0.0800
0.4500
0.4500
0.0800
0.0800
0.0800
0.0800
0.1500
0.1500
0.1500
0.0800
0.0800
0.0800
0.0800
0.4500
0.4500
0.0800
0.0800
0.0800
0.0800
0.1500
0.1500
0.0800
0.0800
0.0800
0.0800
0.4500
0.4500
0.0800
0.0800
0.0800
0.0800

>  <IX_ALOGP>  (24)
0.15810
0.15810
0.13600
-0.32390
0.13600
0.15810
-0.05160
-0.20350
-1.95000
-0.20350
-0.20350
-1.95000
-0.05160
0.13600
0.15810
0.15810
0.13600
-0.05160
-1.95000
-0.20350
-0.20350
-1.95000
-0.20350
-0.05160
0.13600
0.15810
0.15810
0.15810
0.13600
-0.32390
-0.05160
-0.20350
-1.95000
-0.20350
-0.20350
0.15810
0.15810
-0.20350
-0.20350
-1.95000
-0.20350
-0.05160
0.12300
0.12300
0.12300
0.12300
0.12300
0.12300
0.12300
0.21420
0.21420
0.12300
0.12300
0.12300
0.12300
0.21420
0.12300
0.12300
0.12300
0.12300
0.12300
0.12300
0.21420
0.12300
0.12300
0.12300
0.12300
0.21420
0.21420
0.12300
0.12300
0.12300
0.12300
0.12300
0.12300
0.12300
0.12300
0.12300
0.12300
0.12300
0.21420
0.21420
0.12300
0.12300
0.12300
0.12300
0.12300
0.12300
0.12300
0.12300
0.12300
0.12300
0.21420
0.21420
0.12300
0.12300
0.12300
0.12300

$$$$
454523
     RDKit          3D

 61 64  0  0  0  0  0  0  0  0999 V2000
    3.7559   -3.1973   -0.5026 C   0  0  0  0  0  0  0  0  0  0  0  0
    4.0443   -1.6912   -0.6023 C   0  0  0  0  0  0  0  0  0  0  0  0
    5.5586   -1.4390   -0.6442 C   0  0  0  0  0  0  0  0  0  0  0  0
    3.3743   -0.9006    0.5584 C   0  0  0  0  0  0  0  0  0  0  0  0
    2.3701   -0.1015   -0.1169 N   0  0  0  0  0  0  0  0  0  0  0  0
    2.0810    1.2740    0.0981 C   0  0  0  0  0  0  0  0  0  0  0  0
    2.0044    1.8715    1.4769 C   0  0  0  0  0  0  0  0  0  0  0  0
    0.3018    2.3159    2.0096 S   0  0  0  0  0  0  0  0  0  0  0  0
   -0.5803    0.9646    1.1939 C   0  0  0  0  0  0  0  0  0  0  0  0
   -1.3225    1.1787    0.1437 N   0  0  0  0  0  0  0  0  0  0  0  0
   -1.6032    2.4854   -0.4544 C   0  0  0  0  0  0  0  0  0  0  0  0
   -1.9735    2.2951   -1.9328 C   0  0  0  0  0  0  0  0  0  0  0  0
   -2.3153    3.6405   -2.5845 C   0  0  0  0  0  0  0  0  0  0  0  0
   -3.4521    4.3424   -1.8320 C   0  0  0  0  0  0  0  0  0  0  0  0
   -3.1080    4.5204   -0.3481 C   0  0  0  0  0  0  0  0  0  0  0  0
   -2.7541    3.1755    0.3011 C   0  0  0  0  0  0  0  0  0  0  0  0
   -0.4201   -0.3684    1.6990 N   0  0  0  0  0  0  0  0  0  0  0  0
   -0.9939   -1.5418    1.0289 C   0  0  0  0  0  0  0  0  0  0  0  0
   -2.4842   -1.6802    1.3894 C   0  0  0  0  0  0  0  0  0  0  0  0
   -3.0942   -2.9317    0.7422 C   0  0  0  0  0  0  0  0  0  0  0  0
   -2.3163   -4.1940    1.1347 C   0  0  0  0  0  0  0  0  0  0  0  0
   -0.8322   -4.0585    0.7748 C   0  0  0  0  0  0  0  0  0  0  0  0
   -0.2227   -2.8135    1.4290 C   0  0  0  0  0  0  0  0  0  0  0  0
    1.8511    1.9607   -1.0224 C   0  0  0  0  0  0  0  0  0  0  0  0
    1.9057    0.9775   -2.5374 S   0  0  0  0  0  0  0  0  0  0  0  0
    2.4857   -0.3405   -1.4905 C   0  0  0  0  0  0  0  0  0  0  0  0
    3.4292   -1.1514   -1.8168 N   0  0  0  0  0  0  0  0  0  0  0  0
    4.2052   -3.7344   -1.3645 H   0  0  0  0  0  0  0  0  0  0  0  0
    2.6607   -3.3830   -0.5075 H   0  0  0  0  0  0  0  0  0  0  0  0
    4.1822   -3.6099    0.4362 H   0  0  0  0  0  0  0  0  0  0  0  0
    6.0336   -1.7760    0.3024 H   0  0  0  0  0  0  0  0  0  0  0  0
    5.7628   -0.3549   -0.7819 H   0  0  0  0  0  0  0  0  0  0  0  0
    6.0190   -1.9895   -1.4915 H   0  0  0  0  0  0  0  0  0  0  0  0
    2.8885   -1.5673    1.3010 H   0  0  0  0  0  0  0  0  0  0  0  0
    4.0938   -0.2422    1.0916 H   0  0  0  0  0  0  0  0  0  0  0  0
    2.4126    1.1513    2.2164 H   0  0  0  0  0  0  0  0  0  0  0  0
    2.6371    2.7831    1.5174 H   0  0  0  0  0  0  0  0  0  0  0  0
   -0.6971    3.1287   -0.4122 H   0  0  0  0  0  0  0  0  0  0  0  0
   -1.1161    1.8379   -2.4717 H   0  0  0  0  0  0  0  0  0  0  0  0
   -2.8426    1.6050   -2.0219 H   0  0  0  0  0  0  0  0  0  0  0  0
   -1.4134    4.2916   -2.5913 H   0  0  0  0  0  0  0  0  0  0  0  0
   -2.6225    3.4700   -3.6378 H   0  0  0  0  0  0  0  0  0  0  0  0
   -3.6354    5.3388   -2.2883 H   0  0  0  0  0  0  0  0  0  0  0  0
   -4.3851    3.7445   -1.9274 H   0  0  0  0  0  0  0  0  0  0  0  0
   -2.2522    5.2224   -0.2428 H   0  0  0  0  0  0  0  0  0  0  0  0
   -3.9792    4.9629    0.1794 H   0  0  0  0  0  0  0  0  0  0  0  0
   -2.4585    3.3526    1.3574 H   0  0  0  0  0  0  0  0  0  0  0  0
   -3.6513    2.5179    0.3042 H   0  0  0  0  0  0  0  0  0  0  0  0
    0.1869   -0.5040    2.5385 H   0  0  0  0  0  0  0  0  0  0  0  0
   -0.8925   -1.4155   -0.0719 H   0  0  0  0  0  0  0  0  0  0  0  0
   -3.0435   -0.7872    1.0361 H   0  0  0  0  0  0  0  0  0  0  0  0
   -2.6003   -1.7429    2.4952 H   0  0  0  0  0  0  0  0  0  0  0  0
   -4.1506   -3.0369    1.0695 H   0  0  0  0  0  0  0  0  0  0  0  0
   -3.0895   -2.8196   -0.3647 H   0  0  0  0  0  0  0  0  0  0  0  0
   -2.7449   -5.0718    0.6031 H   0  0  0  0  0  0  0  0  0  0  0  0
   -2.4182   -4.3705    2.2298 H   0  0  0  0  0  0  0  0  0  0  0  0
   -0.2854   -4.9607    1.1223 H   0  0  0  0  0  0  0  0  0  0  0  0
   -0.7187   -3.9947   -0.3303 H   0  0  0  0  0  0  0  0  0  0  0  0
    0.8339   -2.7210    1.1039 H   0  0  0  0  0  0  0  0  0  0  0  0
   -0.2347   -2.9353    2.5352 H   0  0  0  0  0  0  0  0  0  0  0  0
    1.6256    3.0179   -1.0287 H   0  0  0  0  0  0  0  0  0  0  0  0
  1  2  1  0
  2  3  1  0
  2  4  1  0
  4  5  1  0
  5  6  1  0
  6  7  1  0
  7  8  1  0
  8  9  1  0
  9 10  2  0
 10 11  1  0
 11 12  1  0
 12 13  1  0
 13 14  1  0
 14 15  1  0
 15 16  1  0
  9 17  1  0
 17 18  1  0
 18 19  1  0
 19 20  1  0
 20 21  1  0
 21 22  1  0
 22 23  1  0
  6 24  2  0
 24 25  1  0
 25 26  1  0
 26 27  2  0
 27  2  1  0
 26  5  1  0
 16 11  1  0
 23 18  1  0
  1 28  1  0
  1 29  1  0
  1 30  1  0
  3 31  1  0
  3 32  1  0
  3 33  1  0
  4 34  1  0
  4 35  1  0
  7 36  1  0
  7 37  1  0
 11 38  1  0
 12 39  1  0
 12 40  1  0
 13 41  1  0
 13 42  1  0
 14 43  1  0
 14 44  1  0
 15 45  1  0
 15 46  1  0
 16 47  1  0
 16 48  1  0
 17 49  1  0
 18 50  1  0
 19 51  1  0
 19 52  1  0
 20 53  1  0
 20 54  1  0
 21 55  1  0
 21 56  1  0
 22 57  1  0
 22 58  1  0
 23 59  1  0
 23 60  1  0
 24 61  1  0
M  END
>  <IX_DELTA_E>  (27)
0.000

>  <IX_CONF_ID>  (27)
1

>  <IX_Q>  (27)
-0.2400
0.2460
-0.2400
0.2091
-0.5191
-0.0382
0.2082
-0.3710
0.6410
-0.6960
0.1660
-0.1600
-0.1600
-0.1600
-0.1600
-0.1600
-0.8191
0.2891
-0.1600
-0.1600
-0.1600
-0.1600
-0.1600
-0.0490
-0.2420
0.6410
-0.6960
0.0800
0.0800
0.0800
0.0800
0.0800
0.0800
0.0800
0.0800
0.0800
0.0800
0.0800
0.0800
0.0800
0.0800
0.0800
0.0800
0.0800
0.0800
0.0800
0.0800
0.0800
0.4000
0.0800
0.0800
0.0800
0.0800
0.0800
0.0800
0.0800
0.0800
0.0800
0.0800
0.0800
0.1500

>  <IX_ALOGP>  (27)
0.14410
-0.20510
0.14410
-0.20350
-0.31870
0.15510
-0.20350
0.64820
-0.27830
0.18360
-0.20510
0.14410
0.14410
0.14410
0.14410
0.14410
-0.70960
-0.20510
0.14410
0.14410
0.14410
0.14410
0.14410
0.15510
0.64820
-0.27830
0.18360
0.12300
0.12300
0.12300
0.12300
0.12300
0.12300
0.12300
0.12300
0.12300
0.12300
0.12300
0.12300
0.12300
0.12300
0.12300
0.12300
0.12300
0.12300
0.12300
0.12300
0.12300
0.21420
0.12300
0.12300
0.12300
0.12300
0.12300
0.12300
0.12300
0.12300
0.12300
0.12300
0.12300
0.12300

$$$$
454524
     RDKit          3D

 67 70  0  0  0  0  0  0  0  0999 V2000
    5.2840   -3.5791   -0.5163 C   0  0  0  0  0  0  0  0  0  0  0  0
    5.5359   -2.1333   -0.0664 C   0  0  0  0  0  0  0  0  0  0  0  0
    6.5497   -2.1013    1.0864 C   0  0  0  0  0  0  0  0  0  0  0  0
    4.2058   -1.4202    0.3169 C   0  0  0  0  0  0  0  0  0  0  0  0
    4.1788   -0.2671   -0.5662 N   0  0  0  0  0  0  0  0  0  0  0  0
    3.0853    0.2164   -1.3396 C   0  0  0  0  0  0  0  0  0  0  0  0
    1.6656    0.1536   -0.8635 C   0  0  0  0  0  0  0  0  0  0  0  0
    1.4494    1.2354    0.5880 S   0  0  0  0  0  0  0  0  0  0  0  0
   -0.2226    0.6375    0.8916 C   0  0  0  0  0  0  0  0  0  0  0  0
   -1.2673    1.2216    0.3757 N   0  0  0  0  0  0  0  0  0  0  0  0
   -1.2706    2.4359   -0.4429 C   0  0  0  0  0  0  0  0  0  0  0  0
   -1.2179    3.6643    0.4840 C   0  0  0  0  0  0  0  0  0  0  0  0
   -1.2472    5.0086   -0.2603 C   0  0  0  0  0  0  0  0  0  0  0  0
   -2.6535    5.3564   -0.7725 C   0  0  0  0  0  0  0  0  0  0  0  0
   -2.9639    4.8215   -2.1816 C   0  0  0  0  0  0  0  0  0  0  0  0
   -2.4412    3.4098   -2.5014 C   0  0  0  0  0  0  0  0  0  0  0  0
   -2.5298    2.4146   -1.3311 C   0  0  0  0  0  0  0  0  0  0  0  0
   -0.3840   -0.5543    1.6725 N   0  0  0  0  0  0  0  0  0  0  0  0
   -1.6432   -1.3097    1.7088 C   0  0  0  0  0  0  0  0  0  0  0  0
   -1.8320   -2.0704    0.3755 C   0  0  0  0  0  0  0  0  0  0  0  0
   -3.3112   -2.1786   -0.0249 C   0  0  0  0  0  0  0  0  0  0  0  0
   -4.0974   -3.2084    0.7951 C   0  0  0  0  0  0  0  0  0  0  0  0
   -4.0794   -2.9431    2.3086 C   0  0  0  0  0  0  0  0  0  0  0  0
   -2.7404   -3.3412    2.9530 C   0  0  0  0  0  0  0  0  0  0  0  0
   -1.6560   -2.2452    2.9398 C   0  0  0  0  0  0  0  0  0  0  0  0
    3.4351    0.6586   -2.5498 C   0  0  0  0  0  0  0  0  0  0  0  0
    5.2018    0.5688   -2.9113 S   0  0  0  0  0  0  0  0  0  0  0  0
    5.3190   -0.3204   -1.3722 C   0  0  0  0  0  0  0  0  0  0  0  0
    6.0552   -1.3589   -1.1939 N   0  0  0  0  0  0  0  0  0  0  0  0
    6.2338   -4.0490   -0.8528 H   0  0  0  0  0  0  0  0  0  0  0  0
    4.5664   -3.6016   -1.3655 H   0  0  0  0  0  0  0  0  0  0  0  0
    4.8653   -4.1772    0.3213 H   0  0  0  0  0  0  0  0  0  0  0  0
    7.5098   -2.5596    0.7661 H   0  0  0  0  0  0  0  0  0  0  0  0
    6.7479   -1.0538    1.4004 H   0  0  0  0  0  0  0  0  0  0  0  0
    6.1611   -2.6680    1.9591 H   0  0  0  0  0  0  0  0  0  0  0  0
    3.3159   -2.0630    0.1430 H   0  0  0  0  0  0  0  0  0  0  0  0
    4.1984   -1.0757    1.3738 H   0  0  0  0  0  0  0  0  0  0  0  0
    0.9663    0.4738   -1.6666 H   0  0  0  0  0  0  0  0  0  0  0  0
    1.4180   -0.8948   -0.5964 H   0  0  0  0  0  0  0  0  0  0  0  0
   -0.3797    2.4361   -1.1055 H   0  0  0  0  0  0  0  0  0  0  0  0
   -0.2735    3.6215    1.0675 H   0  0  0  0  0  0  0  0  0  0  0  0
   -2.0480    3.6177    1.2228 H   0  0  0  0  0  0  0  0  0  0  0  0
   -0.9424    5.7948    0.4632 H   0  0  0  0  0  0  0  0  0  0  0  0
   -0.5013    5.0236   -1.0832 H   0  0  0  0  0  0  0  0  0  0  0  0
   -3.4259    4.9963   -0.0583 H   0  0  0  0  0  0  0  0  0  0  0  0
   -2.7557    6.4647   -0.8016 H   0  0  0  0  0  0  0  0  0  0  0  0
   -2.5414    5.5230   -2.9341 H   0  0  0  0  0  0  0  0  0  0  0  0
   -4.0662    4.8358   -2.3195 H   0  0  0  0  0  0  0  0  0  0  0  0
   -3.0427    3.0119   -3.3480 H   0  0  0  0  0  0  0  0  0  0  0  0
   -1.3971    3.4754   -2.8769 H   0  0  0  0  0  0  0  0  0  0  0  0
   -3.4484    2.5831   -0.7277 H   0  0  0  0  0  0  0  0  0  0  0  0
   -2.6224    1.3954   -1.7693 H   0  0  0  0  0  0  0  0  0  0  0  0
    0.4609   -0.9299    2.1600 H   0  0  0  0  0  0  0  0  0  0  0  0
   -2.4697   -0.5783    1.8477 H   0  0  0  0  0  0  0  0  0  0  0  0
   -1.3159   -1.5214   -0.4418 H   0  0  0  0  0  0  0  0  0  0  0  0
   -1.3618   -3.0779    0.4184 H   0  0  0  0  0  0  0  0  0  0  0  0
   -3.3608   -2.4870   -1.0920 H   0  0  0  0  0  0  0  0  0  0  0  0
   -3.8033   -1.1828    0.0426 H   0  0  0  0  0  0  0  0  0  0  0  0
   -3.7185   -4.2313    0.5765 H   0  0  0  0  0  0  0  0  0  0  0  0
   -5.1538   -3.1819    0.4507 H   0  0  0  0  0  0  0  0  0  0  0  0
   -4.8762   -3.5705    2.7648 H   0  0  0  0  0  0  0  0  0  0  0  0
   -4.3386   -1.8866    2.5338 H   0  0  0  0  0  0  0  0  0  0  0  0
   -2.3445   -4.2619    2.4702 H   0  0  0  0  0  0  0  0  0  0  0  0
   -2.9291   -3.6144    4.0139 H   0  0  0  0  0  0  0  0  0  0  0  0
   -1.7774   -1.6143    3.8474 H   0  0  0  0  0  0  0  0  0  0  0  0
   -0.6713   -2.7530    3.0326 H   0  0  0  0  0  0  0  0  0  0  0  0
    2.7141    1.0090   -3.2777 H   0  0  0  0  0  0  0  0  0  0  0  0
  1  2  1  0
  2  3  1  0
  2  4  1  0
  4  5  1  0
  5  6  1  0
  6  7  1  0
  7  8  1  0
  8  9  1  0
  9 10  2  0
 10 11  1  0
 11 12  1  0
 12 13  1  0
 13 14  1  0
 14 15  1  0
 15 16  1  0
 16 17  1  0
  9 18  1  0
 18 19  1  0
 19 20  1  0
 20 21  1  0
 21 22  1  0
 22 23  1  0
 23 24  1  0
 24 25  1  0
  6 26  2  0
 26 27  1  0
 27 28  1  0
 28 29  2  0
 29  2  1  0
 28  5  1  0
 17 11  1  0
 25 19  1  0
  1 30  1  0
  1 31  1  0
  1 32  1  0
  3 33  1  0
  3 34  1  0
  3 35  1  0
  4 36  1  0
  4 37  1  0
  7 38  1  0
  7 39  1  0
 11 40  1  0
 12 41  1  0
 12 42  1  0
 13 43  1  0
 13 44  1  0
 14 45  1  0
 14 46  1  0
 15 47  1  0
 15 48  1  0
 16 49  1  0
 16 50  1  0
 17 51  1  0
 17 52  1  0
 18 53  1  0
 19 54  1  0
 20 55  1  0
 20 56  1  0
 21 57  1  0
 21 58  1  0
 22 59  1  0
 22 60  1  0
 23 61  1  0
 23 62  1  0
 24 63  1  0
 24 64  1  0
 25 65  1  0
 25 66  1  0
 26 67  1  0
M  END
>  <IX_DELTA_E>  (30)
0.000

>  <IX_CONF_ID>  (30)
1

>  <IX_Q>  (30)
-0.2400
0.2460
-0.2400
0.2091
-0.5191
-0.0382
0.2082
-0.3710
0.6410
-0.6960
0.1660
-0.1600
-0.1600
-0.1600
-0.1600
-0.1600
-0.1600
-0.8191
0.2891
-0.1600
-0.1600
-0.1600
-0.1600
-0.1600
-0.1600
-0.0490
-0.2420
0.6410
-0.6960
0.0800
0.0800
0.0800
0.0800
0.0800
0.0800
0.0800
0.0800
0.0800
0.0800
0.0800
0.0800
0.0800
0.0800
0.0800
0.0800
0.0800
0.0800
0.0800
0.0800
0.0800
0.0800
0.0800
0.4000
0.0800
0.0800
0.0800
0.0800
0.0800
0.0800
0.0800
0.0800
0.0800
0.0800
0.0800
0.0800
0.0800
0.1500

>  <IX_ALOGP>  (30)
0.14410
-0.20510
0.14410
-0.20350
-0.31870
0.15510
-0.20350
0.64820
-0.27830
0.18360
-0.20510
0.14410
0.14410
0.14410
0.14410
0.14410
0.14410
-0.70960
-0.20510
0.14410
0.14410
0.14410
0.14410
0.14410
0.14410
0.15510
0.64820
-0.27830
0.18360
0.12300
0.12300
0.12300
0.12300
0.12300
0.12300
0.12300
0.12300
0.12300
0.12300
0.12300
0.12300
0.12300
0.12300
0.12300
0.12300
0.12300
0.12300
0.12300
0.12300
0.12300
0.12300
0.12300
0.21420
0.12300
0.12300
0.12300
0.12300
0.12300
0.12300
0.12300
0.12300
0.12300
0.12300
0.12300
0.12300
0.12300
0.12300

$$$$
454309
     RDKit          3D

 61 64  0  0  0  0  0  0  0  0999 V2000
   -3.4834    0.4122   -0.6479 C   0  0  0  0  0  0  0  0  0  0  0  0
   -2.9266   -0.6137   -0.0047 C   0  0  0  0  0  0  0  0  0  0  0  0
   -2.8533   -0.7123    1.4927 C   0  0  0  0  0  0  0  0  0  0  0  0
   -1.7892    0.5783    2.2299 S   0  0  0  0  0  0  0  0  0  0  0  0
   -0.2898    0.1144    1.3335 C   0  0  0  0  0  0  0  0  0  0  0  0
    0.1839    0.8610    0.3750 N   0  0  0  0  0  0  0  0  0  0  0  0
   -0.3826    2.1372   -0.0715 C   0  0  0  0  0  0  0  0  0  0  0  0
    0.0216    3.2717    0.8989 C   0  0  0  0  0  0  0  0  0  0  0  0
   -1.0790    4.3385    1.0183 C   0  0  0  0  0  0  0  0  0  0  0  0
   -1.1823    5.2597   -0.2032 C   0  0  0  0  0  0  0  0  0  0  0  0
   -1.4379    4.5154   -1.5282 C   0  0  0  0  0  0  0  0  0  0  0  0
   -0.1699    3.8202   -2.0618 C   0  0  0  0  0  0  0  0  0  0  0  0
    0.0789    2.3990   -1.5185 C   0  0  0  0  0  0  0  0  0  0  0  0
    0.3837   -1.0980    1.7049 N   0  0  0  0  0  0  0  0  0  0  0  0
    1.6373   -1.5493    1.0890 C   0  0  0  0  0  0  0  0  0  0  0  0
    2.8078   -1.1782    2.0250 C   0  0  0  0  0  0  0  0  0  0  0  0
    4.1475   -0.9315    1.3095 C   0  0  0  0  0  0  0  0  0  0  0  0
    4.5277   -1.9311    0.2001 C   0  0  0  0  0  0  0  0  0  0  0  0
    4.0769   -3.3775    0.4585 C   0  0  0  0  0  0  0  0  0  0  0  0
    2.6488   -3.6349   -0.0529 C   0  0  0  0  0  0  0  0  0  0  0  0
    1.5542   -3.0749    0.8649 C   0  0  0  0  0  0  0  0  0  0  0  0
   -2.5243   -1.6786   -0.8608 N   0  0  0  0  0  0  0  0  0  0  0  0
   -2.7333   -3.1009   -0.6340 C   0  0  0  0  0  0  0  0  0  0  0  0
   -3.1971   -3.6152   -2.0114 C   0  0  0  0  0  0  0  0  0  0  0  0
   -3.3805   -2.4112   -2.8216 N   0  0  0  0  0  0  0  0  0  0  0  0
   -2.9295   -1.3961   -2.1689 C   0  0  0  0  0  0  0  0  0  0  0  0
   -3.4597    0.2829   -2.4484 S   0  0  0  0  0  0  0  0  0  0  0  0
   -3.8976    1.2764   -0.1349 H   0  0  0  0  0  0  0  0  0  0  0  0
   -3.8754   -0.6154    1.9160 H   0  0  0  0  0  0  0  0  0  0  0  0
   -2.4563   -1.7037    1.7956 H   0  0  0  0  0  0  0  0  0  0  0  0
   -1.4853    2.0407   -0.0975 H   0  0  0  0  0  0  0  0  0  0  0  0
    0.9867    3.7348    0.5966 H   0  0  0  0  0  0  0  0  0  0  0  0
    0.1863    2.8516    1.9164 H   0  0  0  0  0  0  0  0  0  0  0  0
   -2.0615    3.8590    1.2171 H   0  0  0  0  0  0  0  0  0  0  0  0
   -0.8555    4.9736    1.9023 H   0  0  0  0  0  0  0  0  0  0  0  0
   -0.2626    5.8821   -0.2795 H   0  0  0  0  0  0  0  0  0  0  0  0
   -2.0314    5.9571   -0.0255 H   0  0  0  0  0  0  0  0  0  0  0  0
   -2.2814    3.7972   -1.4349 H   0  0  0  0  0  0  0  0  0  0  0  0
   -1.7470    5.2760   -2.2779 H   0  0  0  0  0  0  0  0  0  0  0  0
   -0.2516    3.7472   -3.1691 H   0  0  0  0  0  0  0  0  0  0  0  0
    0.7215    4.4557   -1.8600 H   0  0  0  0  0  0  0  0  0  0  0  0
   -0.4400    1.6712   -2.1783 H   0  0  0  0  0  0  0  0  0  0  0  0
    1.1678    2.1844   -1.6054 H   0  0  0  0  0  0  0  0  0  0  0  0
    0.0253   -1.6183    2.5377 H   0  0  0  0  0  0  0  0  0  0  0  0
    1.7648   -1.0510    0.1011 H   0  0  0  0  0  0  0  0  0  0  0  0
    2.9434   -1.9559    2.8087 H   0  0  0  0  0  0  0  0  0  0  0  0
    2.5567   -0.2421    2.5710 H   0  0  0  0  0  0  0  0  0  0  0  0
    4.1317    0.0884    0.8669 H   0  0  0  0  0  0  0  0  0  0  0  0
    4.9479   -0.9325    2.0823 H   0  0  0  0  0  0  0  0  0  0  0  0
    4.1351   -1.5715   -0.7779 H   0  0  0  0  0  0  0  0  0  0  0  0
    5.6356   -1.9221    0.1072 H   0  0  0  0  0  0  0  0  0  0  0  0
    4.1724   -3.6507    1.5325 H   0  0  0  0  0  0  0  0  0  0  0  0
    4.7619   -4.0529   -0.1029 H   0  0  0  0  0  0  0  0  0  0  0  0
    2.5228   -3.2275   -1.0800 H   0  0  0  0  0  0  0  0  0  0  0  0
    2.4984   -4.7339   -0.1256 H   0  0  0  0  0  0  0  0  0  0  0  0
    0.5759   -3.3098    0.3889 H   0  0  0  0  0  0  0  0  0  0  0  0
    1.5764   -3.6129    1.8400 H   0  0  0  0  0  0  0  0  0  0  0  0
   -1.7849   -3.5859   -0.3171 H   0  0  0  0  0  0  0  0  0  0  0  0
   -3.5319   -3.2636    0.1277 H   0  0  0  0  0  0  0  0  0  0  0  0
   -2.4320   -4.2738   -2.4823 H   0  0  0  0  0  0  0  0  0  0  0  0
   -4.1657   -4.1594   -1.9220 H   0  0  0  0  0  0  0  0  0  0  0  0
  1  2  2  0
  2  3  1  0
  3  4  1  0
  4  5  1  0
  5  6  2  0
  6  7  1  0
  7  8  1  0
  8  9  1  0
  9 10  1  0
 10 11  1  0
 11 12  1  0
 12 13  1  0
  5 14  1  0
 14 15  1  0
 15 16  1  0
 16 17  1  0
 17 18  1  0
 18 19  1  0
 19 20  1  0
 20 21  1  0
  2 22  1  0
 22 23  1  0
 23 24  1  0
 24 25  1  0
 25 26  2  0
 26 27  1  0
 27  1  1  0
 13  7  1  0
 21 15  1  0
 26 22  1  0
  1 28  1  0
  3 29  1  0
  3 30  1  0
  7 31  1  0
  8 32  1  0
  8 33  1  0
  9 34  1  0
  9 35  1  0
 10 36  1  0
 10 37  1  0
 11 38  1  0
 11 39  1  0
 12 40  1  0
 12 41  1  0
 13 42  1  0
 13 43  1  0
 14 44  1  0
 15 45  1  0
 16 46  1  0
 16 47  1  0
 17 48  1  0
 17 49  1  0
 18 50  1  0
 18 51  1  0
 19 52  1  0
 19 53  1  0
 20 54  1  0
 20 55  1  0
 21 56  1  0
 21 57  1  0
 23 58  1  0
 23 59  1  0
 24 60  1  0
 24 61  1  0
M  END
>  <IX_DELTA_E>  (38)
0.000

>  <IX_CONF_ID>  (38)
1

>  <IX_Q>  (38)
-0.0490
-0.0382
0.2082
-0.3710
0.6410
-0.6960
0.1660
-0.1600
-0.1600
-0.1600
-0.1600
-0.1600
-0.1600
-0.8191
0.2891
-0.1600
-0.1600
-0.1600
-0.1600
-0.1600
-0.1600
-0.5191
0.2091
0.0860
-0.6960
0.6410
-0.2420
0.1500
0.0800
0.0800
0.0800
0.0800
0.0800
0.0800
0.0800
0.0800
0.0800
0.0800
0.0800
0.0800
0.0800
0.0800
0.0800
0.4000
0.0800
0.0800
0.0800
0.0800
0.0800
0.0800
0.0800
0.0800
0.0800
0.0800
0.0800
0.0800
0.0800
0.0800
0.0800
0.0800
0.0800

>  <IX_ALOGP>  (38)
0.15510
0.15510
-0.20350
0.64820
-0.27830
0.18360
-0.20510
0.14410
0.14410
0.14410
0.14410
0.14410
0.14410
-0.70960
-0.20510
0.14410
0.14410
0.14410
0.14410
0.14410
0.14410
-0.31870
-0.20350
-0.20350
0.18360
-0.27830
0.64820
0.12300
0.12300
0.12300
0.12300
0.12300
0.12300
0.12300
0.12300
0.12300
0.12300
0.12300
0.12300
0.12300
0.12300
0.12300
0.12300
0.21420
0.12300
0.12300
0.12300
0.12300
0.12300
0.12300
0.12300
0.12300
0.12300
0.12300
0.12300
0.12300
0.12300
0.12300
0.12300
0.12300
0.12300

$$$$
627834
     RDKit          3D

 63 66  0  0  0  0  0  0  0  0999 V2000
   -4.2230   -2.8753   -0.4799 C   0  0  0  0  0  0  0  0  0  0  0  0
   -4.1427   -1.8153    0.5438 N   0  0  0  0  0  0  0  0  0  0  0  0
   -4.5082   -2.3763    1.8582 C   0  0  0  0  0  0  0  0  0  0  0  0
   -2.7822   -1.2256    0.5454 C   0  0  0  0  0  0  0  0  0  0  0  0
   -2.6374   -0.0466    1.5315 C   0  0  0  0  0  0  0  0  0  0  0  0
   -1.3007    0.7006    1.3596 C   0  0  0  0  0  0  0  0  0  0  0  0
   -1.2916    1.5949    0.1242 C   0  0  0  0  0  0  0  0  0  0  0  0
   -0.5686    1.2243   -1.0488 C   0  0  0  0  0  0  0  0  0  0  0  0
    0.2900   -0.0195   -1.1504 C   0  0  0  0  0  0  0  0  0  0  0  0
    1.6568    0.2038   -0.6094 N   0  0  2  0  0  0  0  0  0  0  0  0
    2.4454    1.0736   -1.5144 C   0  0  0  0  0  0  0  0  0  0  0  0
    2.3412   -1.0898   -0.2945 C   0  0  1  0  0  0  0  0  0  0  0  0
    2.5238   -1.9919   -1.5438 C   0  0  0  0  0  0  0  0  0  0  0  0
    3.3640   -3.2206   -1.2035 C   0  0  0  0  0  0  0  0  0  0  0  0
    4.7826   -2.8065   -0.8052 C   0  0  0  0  0  0  0  0  0  0  0  0
    4.7988   -1.6736    0.1923 C   0  0  0  0  0  0  0  0  0  0  0  0
    5.9913   -1.3831    0.8706 C   0  0  0  0  0  0  0  0  0  0  0  0
    6.0316   -0.3597    1.8172 C   0  0  0  0  0  0  0  0  0  0  0  0
    4.8739    0.3673    2.0831 C   0  0  0  0  0  0  0  0  0  0  0  0
    3.7280    0.0942    1.4053 N   0  0  0  0  0  0  0  0  0  0  0  0
    3.6566   -0.8776    0.4502 C   0  0  0  0  0  0  0  0  0  0  0  0
   -0.6001    2.0295   -2.1438 N   0  0  0  0  0  0  0  0  0  0  0  0
   -1.2926    3.1905   -2.1849 C   0  0  0  0  0  0  0  0  0  0  0  0
   -2.0004    3.6250   -1.0649 C   0  0  0  0  0  0  0  0  0  0  0  0
   -2.6993    4.8417   -1.1078 C   0  0  0  0  0  0  0  0  0  0  0  0
   -3.4097    5.2819    0.0074 C   0  0  0  0  0  0  0  0  0  0  0  0
   -3.4253    4.5170    1.1719 C   0  0  0  0  0  0  0  0  0  0  0  0
   -2.7296    3.3082    1.2309 C   0  0  0  0  0  0  0  0  0  0  0  0
   -2.0076    2.8303    0.1104 C   0  0  0  0  0  0  0  0  0  0  0  0
   -5.2647   -3.2632   -0.5540 H   0  0  0  0  0  0  0  0  0  0  0  0
   -3.9435   -2.4806   -1.4810 H   0  0  0  0  0  0  0  0  0  0  0  0
   -3.5456   -3.7236   -0.2299 H   0  0  0  0  0  0  0  0  0  0  0  0
   -4.8347   -1.0721    0.2887 H   0  0  0  0  0  0  0  0  0  0  0  0
   -3.7228   -3.0717    2.2320 H   0  0  0  0  0  0  0  0  0  0  0  0
   -5.4719   -2.9290    1.7937 H   0  0  0  0  0  0  0  0  0  0  0  0
   -4.6630   -1.5652    2.6022 H   0  0  0  0  0  0  0  0  0  0  0  0
   -2.0190   -2.0023    0.7864 H   0  0  0  0  0  0  0  0  0  0  0  0
   -2.5626   -0.8411   -0.4754 H   0  0  0  0  0  0  0  0  0  0  0  0
   -3.4928    0.6497    1.4030 H   0  0  0  0  0  0  0  0  0  0  0  0
   -2.6677   -0.4360    2.5725 H   0  0  0  0  0  0  0  0  0  0  0  0
   -0.4746   -0.0351    1.3639 H   0  0  0  0  0  0  0  0  0  0  0  0
   -1.0971    1.3182    2.2587 H   0  0  0  0  0  0  0  0  0  0  0  0
   -0.2097   -0.8686   -0.6431 H   0  0  0  0  0  0  0  0  0  0  0  0
    0.3380   -0.3248   -2.2192 H   0  0  0  0  0  0  0  0  0  0  0  0
    1.5472    0.7212    0.2947 H   0  0  0  0  0  0  0  0  0  0  0  0
    2.3643    0.7523   -2.5736 H   0  0  0  0  0  0  0  0  0  0  0  0
    3.5198    1.0867   -1.2362 H   0  0  0  0  0  0  0  0  0  0  0  0
    2.0841    2.1218   -1.4443 H   0  0  0  0  0  0  0  0  0  0  0  0
    1.7006   -1.6538    0.4224 H   0  0  0  0  0  0  0  0  0  0  0  0
    1.5363   -2.3402   -1.9117 H   0  0  0  0  0  0  0  0  0  0  0  0
    3.0219   -1.4381   -2.3661 H   0  0  0  0  0  0  0  0  0  0  0  0
    3.4146   -3.8884   -2.0902 H   0  0  0  0  0  0  0  0  0  0  0  0
    2.8886   -3.7870   -0.3719 H   0  0  0  0  0  0  0  0  0  0  0  0
    5.2911   -3.6920   -0.3702 H   0  0  0  0  0  0  0  0  0  0  0  0
    5.3508   -2.4965   -1.7086 H   0  0  0  0  0  0  0  0  0  0  0  0
    6.8867   -1.9616    0.6770 H   0  0  0  0  0  0  0  0  0  0  0  0
    6.9516   -0.1353    2.3420 H   0  0  0  0  0  0  0  0  0  0  0  0
    4.8851    1.1543    2.8245 H   0  0  0  0  0  0  0  0  0  0  0  0
   -1.2803    3.7807   -3.0951 H   0  0  0  0  0  0  0  0  0  0  0  0
   -2.6953    5.4529   -2.0033 H   0  0  0  0  0  0  0  0  0  0  0  0
   -3.9504    6.2184   -0.0313 H   0  0  0  0  0  0  0  0  0  0  0  0
   -3.9824    4.8607    2.0330 H   0  0  0  0  0  0  0  0  0  0  0  0
   -2.7677    2.7680    2.1655 H   0  0  0  0  0  0  0  0  0  0  0  0
  1  2  1  0
  2  3  1  0
  2  4  1  0
  4  5  1  0
  5  6  1  0
  6  7  1  0
  7  8  2  0
  8  9  1  0
  9 10  1  0
 10 11  1  0
 10 12  1  0
 12 13  1  0
 13 14  1  0
 14 15  1  0
 15 16  1  0
 16 17  2  0
 17 18  1  0
 18 19  2  0
 19 20  1  0
 20 21  2  0
  8 22  1  0
 22 23  2  0
 23 24  1  0
 24 25  2  0
 25 26  1  0
 26 27  2  0
 27 28  1  0
 28 29  2  0
 29  7  1  0
 21 12  1  0
 29 24  1  0
 21 16  1  0
  1 30  1  0
  1 31  1  0
  1 32  1  0
  2 33  1  0
  3 34  1  0
  3 35  1  0
  3 36  1  0
  4 37  1  0
  4 38  1  0
  5 39  1  0
  5 40  1  0
  6 41  1  0
  6 42  1  0
  9 43  1  0
  9 44  1  0
 10 45  1  1
 11 46  1  0
 11 47  1  0
 11 48  1  0
 12 49  1  1
 13 50  1  0
 13 51  1  0
 14 52  1  0
 14 53  1  0
 15 54  1  0
 15 55  1  0
 17 56  1  0
 18 57  1  0
 19 58  1  0
 23 59  1  0
 25 60  1  0
 26 61  1  0
 27 62  1  0
 28 63  1  0
M  CHG  2   2   1  10   1
M  END
>  <IX_DELTA_E>  (45)
0.000

>  <IX_CONF_ID>  (45)
1

>  <IX_Q>  (45)
0.2630
-0.9590
0.2630
0.3430
-0.1600
-0.0165
-0.1435
0.1665
0.4865
-0.9590
0.2630
0.5665
-0.1600
-0.1600
-0.0165
-0.1435
-0.1500
-0.1500
0.1600
-0.6200
0.1665
-0.6200
0.1600
0.0000
-0.1500
-0.1500
-0.1500
-0.1500
0.0000
0.0800
0.0800
0.0800
0.4500
0.0800
0.0800
0.0800
0.0800
0.0800
0.0800
0.0800
0.0800
0.0800
0.0800
0.0800
0.4500
0.0800
0.0800
0.0800
0.0800
0.0800
0.0800
0.0800
0.0800
0.0800
0.0800
0.1500
0.1500
0.1500
0.1500
0.1500
0.1500
0.1500
0.1500

>  <IX_ALOGP>  (45)
-0.20350
-1.95000
-0.20350
-0.20350
0.14410
-0.05160
0.13600
0.13600
-0.05160
-1.95000
-0.20350
0.11930
0.14410
0.14410
-0.05160
0.13600
0.15810
0.15810
0.15810
-0.32390
0.13600
-0.32390
0.15810
0.29550
0.15810
0.15810
0.15810
0.15810
0.29550
0.12300
0.12300
0.12300
0.21420
0.12300
0.12300
0.12300
0.12300
0.12300
0.12300
0.12300
0.12300
0.12300
0.12300
0.12300
0.21420
0.12300
0.12300
0.12300
0.12300
0.12300
0.12300
0.12300
0.12300
0.12300
0.12300
0.12300
0.12300
0.12300
0.12300
0.12300
0.12300
0.12300
0.12300

$$$$
620980
     RDKit          3D

 71 75  0  0  0  0  0  0  0  0999 V2000
    2.9914   -1.4064    2.9139 C   0  0  0  0  0  0  0  0  0  0  0  0
    2.4246   -0.6886    1.6669 C   0  0  0  0  0  0  0  0  0  0  0  0
    1.5494    0.4933    2.1462 C   0  0  0  0  0  0  0  0  0  0  0  0
    3.5124   -0.2368    0.7307 N   0  0  1  0  0  0  0  0  0  0  0  0
    4.3968   -1.3315    0.2480 C   0  0  0  0  0  0  0  0  0  0  0  0
    3.6826   -2.2912   -0.7182 C   0  0  0  0  0  0  0  0  0  0  0  0
    3.1024   -1.5244   -1.9116 C   0  0  0  0  0  0  0  0  0  0  0  0
    2.2202   -0.3598   -1.4361 C   0  0  2  0  0  0  0  0  0  0  0  0
    1.7144    0.4660   -2.6314 C   0  0  0  0  0  0  0  0  0  0  0  0
    0.6791    1.4228   -2.2114 N   0  0  0  0  0  0  0  0  0  0  0  0
   -0.6421    1.1902   -1.9502 C   0  0  0  0  0  0  0  0  0  0  0  0
   -1.3082   -0.1637   -2.0083 C   0  0  0  0  0  0  0  0  0  0  0  0
   -1.5575   -0.7298   -0.6524 N   0  0  2  0  0  0  0  0  0  0  0  0
   -1.5781   -2.2101   -0.7169 C   0  0  0  0  0  0  0  0  0  0  0  0
   -2.7682   -0.1596    0.0270 C   0  0  1  0  0  0  0  0  0  0  0  0
   -4.0850   -0.3216   -0.8046 C   0  0  0  0  0  0  0  0  0  0  0  0
   -5.3430   -0.4161    0.0612 C   0  0  0  0  0  0  0  0  0  0  0  0
   -5.2081   -1.5767    1.0427 C   0  0  0  0  0  0  0  0  0  0  0  0
   -4.0207   -1.3555    1.9344 C   0  0  0  0  0  0  0  0  0  0  0  0
   -4.0416   -1.8151    3.2585 C   0  0  0  0  0  0  0  0  0  0  0  0
   -2.9591   -1.5696    4.1001 C   0  0  0  0  0  0  0  0  0  0  0  0
   -1.8557   -0.8748    3.6079 C   0  0  0  0  0  0  0  0  0  0  0  0
   -1.8391   -0.4483    2.3188 N   0  0  0  0  0  0  0  0  0  0  0  0
   -2.8775   -0.6721    1.4638 C   0  0  0  0  0  0  0  0  0  0  0  0
   -1.3418    2.3189   -1.6508 N   0  0  0  0  0  0  0  0  0  0  0  0
   -0.4068    3.2836   -1.7219 C   0  0  0  0  0  0  0  0  0  0  0  0
   -0.5814    4.6469   -1.4919 C   0  0  0  0  0  0  0  0  0  0  0  0
    0.5501    5.4796   -1.6077 C   0  0  0  0  0  0  0  0  0  0  0  0
    1.8099    4.9350   -1.9496 C   0  0  0  0  0  0  0  0  0  0  0  0
    1.9502    3.5528   -2.1781 C   0  0  0  0  0  0  0  0  0  0  0  0
    0.8061    2.7544   -2.0594 C   0  0  0  0  0  0  0  0  0  0  0  0
    3.0160    0.5261   -0.4450 C   0  0  0  0  0  0  0  0  0  0  0  0
    3.7956   -0.8017    3.3843 H   0  0  0  0  0  0  0  0  0  0  0  0
    2.1902   -1.5806    3.6619 H   0  0  0  0  0  0  0  0  0  0  0  0
    3.3811   -2.4110    2.6499 H   0  0  0  0  0  0  0  0  0  0  0  0
    1.7448   -1.4111    1.1652 H   0  0  0  0  0  0  0  0  0  0  0  0
    0.8825    0.8430    1.3346 H   0  0  0  0  0  0  0  0  0  0  0  0
    0.8842    0.1838    2.9741 H   0  0  0  0  0  0  0  0  0  0  0  0
    2.1820    1.3346    2.4978 H   0  0  0  0  0  0  0  0  0  0  0  0
    4.1264    0.4226    1.2684 H   0  0  0  0  0  0  0  0  0  0  0  0
    5.2706   -0.8936   -0.2867 H   0  0  0  0  0  0  0  0  0  0  0  0
    4.8445   -1.9022    1.0875 H   0  0  0  0  0  0  0  0  0  0  0  0
    4.4129   -3.0413   -1.0895 H   0  0  0  0  0  0  0  0  0  0  0  0
    2.8800   -2.8463   -0.1920 H   0  0  0  0  0  0  0  0  0  0  0  0
    2.4941   -2.2238   -2.5279 H   0  0  0  0  0  0  0  0  0  0  0  0
    3.9323   -1.1422   -2.5422 H   0  0  0  0  0  0  0  0  0  0  0  0
    1.3379   -0.7931   -0.9307 H   0  0  0  0  0  0  0  0  0  0  0  0
    2.5663    0.9990   -3.1053 H   0  0  0  0  0  0  0  0  0  0  0  0
    1.3063   -0.1948   -3.4227 H   0  0  0  0  0  0  0  0  0  0  0  0
   -2.2426   -0.0771   -2.5983 H   0  0  0  0  0  0  0  0  0  0  0  0
   -0.6691   -0.8473   -2.6060 H   0  0  0  0  0  0  0  0  0  0  0  0
   -0.7296   -0.4845   -0.0562 H   0  0  0  0  0  0  0  0  0  0  0  0
   -0.5988   -2.5934   -1.0884 H   0  0  0  0  0  0  0  0  0  0  0  0
   -2.3698   -2.5887   -1.4004 H   0  0  0  0  0  0  0  0  0  0  0  0
   -1.7236   -2.6571    0.2915 H   0  0  0  0  0  0  0  0  0  0  0  0
   -2.6165    0.9349    0.1389 H   0  0  0  0  0  0  0  0  0  0  0  0
   -4.0566   -1.2186   -1.4525 H   0  0  0  0  0  0  0  0  0  0  0  0
   -4.1969    0.5552   -1.4792 H   0  0  0  0  0  0  0  0  0  0  0  0
   -5.4959    0.5382    0.6148 H   0  0  0  0  0  0  0  0  0  0  0  0
   -6.2279   -0.5834   -0.5882 H   0  0  0  0  0  0  0  0  0  0  0  0
   -5.0753   -2.5304    0.4877 H   0  0  0  0  0  0  0  0  0  0  0  0
   -6.1405   -1.6491    1.6454 H   0  0  0  0  0  0  0  0  0  0  0  0
   -4.8958   -2.3585    3.6431 H   0  0  0  0  0  0  0  0  0  0  0  0
   -2.9703   -1.9127    5.1271 H   0  0  0  0  0  0  0  0  0  0  0  0
   -1.0111   -0.6738    4.2527 H   0  0  0  0  0  0  0  0  0  0  0  0
   -1.5508    5.0562   -1.2311 H   0  0  0  0  0  0  0  0  0  0  0  0
    0.4540    6.5431   -1.4352 H   0  0  0  0  0  0  0  0  0  0  0  0
    2.6749    5.5832   -2.0252 H   0  0  0  0  0  0  0  0  0  0  0  0
    2.9176    3.1334   -2.4271 H   0  0  0  0  0  0  0  0  0  0  0  0
    3.8843    0.9693   -0.9856 H   0  0  0  0  0  0  0  0  0  0  0  0
    2.4168    1.4022   -0.1291 H   0  0  0  0  0  0  0  0  0  0  0  0
  1  2  1  0
  2  3  1  0
  2  4  1  0
  4  5  1  0
  5  6  1  0
  6  7  1  0
  7  8  1  0
  8  9  1  0
  9 10  1  0
 10 11  1  0
 11 12  1  0
 12 13  1  0
 13 14  1  0
 13 15  1  0
 15 16  1  0
 16 17  1  0
 17 18  1  0
 18 19  1  0
 19 20  2  0
 20 21  1  0
 21 22  2  0
 22 23  1  0
 23 24  2  0
 11 25  2  0
 25 26  1  0
 26 27  2  0
 27 28  1  0
 28 29  2  0
 29 30  1  0
 30 31  2  0
  8 32  1  0
 32  4  1  0
 31 10  1  0
 24 15  1  0
 31 26  1  0
 24 19  1  0
  1 33  1  0
  1 34  1  0
  1 35  1  0
  2 36  1  0
  3 37  1  0
  3 38  1  0
  3 39  1  0
  4 40  1  1
  5 41  1  0
  5 42  1  0
  6 43  1  0
  6 44  1  0
  7 45  1  0
  7 46  1  0
  8 47  1  1
  9 48  1  0
  9 49  1  0
 12 50  1  0
 12 51  1  0
 13 52  1  1
 14 53  1  0
 14 54  1  0
 14 55  1  0
 15 56  1  1
 16 57  1  0
 16 58  1  0
 17 59  1  0
 17 60  1  0
 18 61  1  0
 18 62  1  0
 20 63  1  0
 21 64  1  0
 22 65  1  0
 27 66  1  0
 28 67  1  0
 29 68  1  0
 30 69  1  0
 32 70  1  0
 32 71  1  0
M  CHG  2   4   1  13   1
M  END
>  <IX_DELTA_E>  (53)
0.000

>  <IX_CONF_ID>  (53)
1

>  <IX_Q>  (53)
-0.2400
0.4230
-0.2400
-0.9590
0.3430
-0.1600
-0.1600
-0.0800
0.0956
0.0476
0.0065
0.5230
-0.9590
0.2630
0.5665
-0.1600
-0.1600
-0.0165
-0.1435
-0.1500
-0.1500
0.1600
-0.6200
0.1665
-0.5653
0.2272
-0.1500
-0.1500
-0.1500
-0.1500
-0.1516
0.3430
0.0800
0.0800
0.0800
0.0800
0.0800
0.0800
0.0800
0.4500
0.0800
0.0800
0.0800
0.0800
0.0800
0.0800
0.0800
0.0800
0.0800
0.0800
0.0800
0.4500
0.0800
0.0800
0.0800
0.0800
0.0800
0.0800
0.0800
0.0800
0.0800
0.0800
0.1500
0.1500
0.1500
0.1500
0.1500
0.1500
0.1500
0.0800
0.0800

>  <IX_ALOGP>  (53)
0.14410
-0.20510
0.14410
-1.95000
-0.20350
0.14410
0.14410
0.00000
-0.05160
-0.32390
0.13600
-0.05160
-1.95000
-0.20350
0.11930
0.14410
0.14410
-0.05160
0.13600
0.15810
0.15810
0.15810
-0.32390
0.13600
-0.32390
0.29550
0.15810
0.15810
0.15810
0.15810
0.29550
-0.20350
0.12300
0.12300
0.12300
0.12300
0.12300
0.12300
0.12300
0.21420
0.12300
0.12300
0.12300
0.12300
0.12300
0.12300
0.12300
0.12300
0.12300
0.12300
0.12300
0.21420
0.12300
0.12300
0.12300
0.12300
0.12300
0.12300
0.12300
0.12300
0.12300
0.12300
0.12300
0.12300
0.12300
0.12300
0.12300
0.12300
0.12300
0.12300
0.12300

$$$$
454310
     RDKit          3D

 67 70  0  0  0  0  0  0  0  0999 V2000
   -2.6398    1.3652   -1.5069 C   0  0  0  0  0  0  0  0  0  0  0  0
   -2.2167    2.1507   -0.5148 C   0  0  0  0  0  0  0  0  0  0  0  0
   -2.8079    2.1550    0.8645 C   0  0  0  0  0  0  0  0  0  0  0  0
   -2.5720    0.5715    1.7583 S   0  0  0  0  0  0  0  0  0  0  0  0
   -0.8189    0.3553    1.3736 C   0  0  0  0  0  0  0  0  0  0  0  0
   -0.4165   -0.5852    0.5685 N   0  0  0  0  0  0  0  0  0  0  0  0
   -1.2483   -1.6067   -0.0730 C   0  0  0  0  0  0  0  0  0  0  0  0
   -1.6348   -2.6859    0.9756 C   0  0  0  0  0  0  0  0  0  0  0  0
   -3.1270   -3.0635    0.9561 C   0  0  0  0  0  0  0  0  0  0  0  0
   -3.4341   -4.3106    0.1221 C   0  0  0  0  0  0  0  0  0  0  0  0
   -3.3517   -4.0702   -1.3932 C   0  0  0  0  0  0  0  0  0  0  0  0
   -1.9221   -4.1827   -1.9650 C   0  0  0  0  0  0  0  0  0  0  0  0
   -1.3025   -2.8259   -2.3467 C   0  0  0  0  0  0  0  0  0  0  0  0
   -0.4389   -2.1984   -1.2434 C   0  0  0  0  0  0  0  0  0  0  0  0
    0.1470    1.2014    2.0213 N   0  0  0  0  0  0  0  0  0  0  0  0
    1.5951    1.1683    1.7487 C   0  0  0  0  0  0  0  0  0  0  0  0
    1.8463    1.6609    0.3000 C   0  0  0  0  0  0  0  0  0  0  0  0
    3.3051    1.9944   -0.0533 C   0  0  0  0  0  0  0  0  0  0  0  0
    4.2010    0.7509   -0.2212 C   0  0  0  0  0  0  0  0  0  0  0  0
    5.1653    0.4927    0.9492 C   0  0  0  0  0  0  0  0  0  0  0  0
    4.5904    0.6813    2.3651 C   0  0  0  0  0  0  0  0  0  0  0  0
    3.5042   -0.3202    2.7802 C   0  0  0  0  0  0  0  0  0  0  0  0
    2.1617   -0.2553    2.0193 C   0  0  0  0  0  0  0  0  0  0  0  0
   -1.1635    3.0246   -0.8855 N   0  0  0  0  0  0  0  0  0  0  0  0
   -1.0174    4.4238   -0.5357 C   0  0  0  0  0  0  0  0  0  0  0  0
   -0.4845    5.0569   -1.8346 C   0  0  0  0  0  0  0  0  0  0  0  0
   -0.6056    4.0075   -2.8419 N   0  0  0  0  0  0  0  0  0  0  0  0
   -0.9133    2.9043   -2.2546 C   0  0  0  0  0  0  0  0  0  0  0  0
   -1.7070    1.5219   -3.0467 S   0  0  0  0  0  0  0  0  0  0  0  0
   -3.4761    0.6888   -1.3974 H   0  0  0  0  0  0  0  0  0  0  0  0
   -3.8961    2.3609    0.7891 H   0  0  0  0  0  0  0  0  0  0  0  0
   -2.3556    2.9693    1.4717 H   0  0  0  0  0  0  0  0  0  0  0  0
   -2.1483   -1.1150   -0.4943 H   0  0  0  0  0  0  0  0  0  0  0  0
   -1.4149   -2.2974    1.9943 H   0  0  0  0  0  0  0  0  0  0  0  0
   -1.0017   -3.5929    0.8852 H   0  0  0  0  0  0  0  0  0  0  0  0
   -3.4308   -3.2911    2.0006 H   0  0  0  0  0  0  0  0  0  0  0  0
   -3.7645   -2.2123    0.6341 H   0  0  0  0  0  0  0  0  0  0  0  0
   -4.4804   -4.6093    0.3557 H   0  0  0  0  0  0  0  0  0  0  0  0
   -2.7869   -5.1615    0.4304 H   0  0  0  0  0  0  0  0  0  0  0  0
   -3.9710   -4.8580   -1.8769 H   0  0  0  0  0  0  0  0  0  0  0  0
   -3.8321   -3.1038   -1.6564 H   0  0  0  0  0  0  0  0  0  0  0  0
   -1.2477   -4.7526   -1.2907 H   0  0  0  0  0  0  0  0  0  0  0  0
   -1.9863   -4.7869   -2.8961 H   0  0  0  0  0  0  0  0  0  0  0  0
   -0.6362   -2.9952   -3.2210 H   0  0  0  0  0  0  0  0  0  0  0  0
   -2.0749   -2.1055   -2.6898 H   0  0  0  0  0  0  0  0  0  0  0  0
    0.1350   -1.3727   -1.7239 H   0  0  0  0  0  0  0  0  0  0  0  0
    0.3205   -2.9229   -0.8794 H   0  0  0  0  0  0  0  0  0  0  0  0
   -0.2039    1.8867    2.7274 H   0  0  0  0  0  0  0  0  0  0  0  0
    2.0593    1.8938    2.4473 H   0  0  0  0  0  0  0  0  0  0  0  0
    1.2708    2.5989    0.1652 H   0  0  0  0  0  0  0  0  0  0  0  0
    1.4448    0.9349   -0.4388 H   0  0  0  0  0  0  0  0  0  0  0  0
    3.7293    2.7284    0.6603 H   0  0  0  0  0  0  0  0  0  0  0  0
    3.2828    2.5252   -1.0313 H   0  0  0  0  0  0  0  0  0  0  0  0
    3.6088   -0.1570   -0.4509 H   0  0  0  0  0  0  0  0  0  0  0  0
    4.8298    0.9005   -1.1250 H   0  0  0  0  0  0  0  0  0  0  0  0
    6.0195    1.1969    0.8440 H   0  0  0  0  0  0  0  0  0  0  0  0
    5.5816   -0.5345    0.8552 H   0  0  0  0  0  0  0  0  0  0  0  0
    4.2611    1.7224    2.5364 H   0  0  0  0  0  0  0  0  0  0  0  0
    5.4388    0.5472    3.0711 H   0  0  0  0  0  0  0  0  0  0  0  0
    3.2926   -0.1490    3.8596 H   0  0  0  0  0  0  0  0  0  0  0  0
    3.9122   -1.3513    2.6946 H   0  0  0  0  0  0  0  0  0  0  0  0
    2.2249   -0.8457    1.0858 H   0  0  0  0  0  0  0  0  0  0  0  0
    1.4372   -0.8176    2.6484 H   0  0  0  0  0  0  0  0  0  0  0  0
   -2.0078    4.8597   -0.2752 H   0  0  0  0  0  0  0  0  0  0  0  0
   -0.3054    4.5413    0.3093 H   0  0  0  0  0  0  0  0  0  0  0  0
    0.5785    5.3605   -1.7258 H   0  0  0  0  0  0  0  0  0  0  0  0
   -1.1008    5.9350   -2.1217 H   0  0  0  0  0  0  0  0  0  0  0  0
  1  2  2  0
  2  3  1  0
  3  4  1  0
  4  5  1  0
  5  6  2  0
  6  7  1  0
  7  8  1  0
  8  9  1  0
  9 10  1  0
 10 11  1  0
 11 12  1  0
 12 13  1  0
 13 14  1  0
  5 15  1  0
 15 16  1  0
 16 17  1  0
 17 18  1  0
 18 19  1  0
 19 20  1  0
 20 21  1  0
 21 22  1  0
 22 23  1  0
  2 24  1  0
 24 25  1  0
 25 26  1  0
 26 27  1  0
 27 28  2  0
 28 29  1  0
 29  1  1  0
 14  7  1  0
 23 16  1  0
 28 24  1  0
  1 30  1  0
  3 31  1  0
  3 32  1  0
  7 33  1  0
  8 34  1  0
  8 35  1  0
  9 36  1  0
  9 37  1  0
 10 38  1  0
 10 39  1  0
 11 40  1  0
 11 41  1  0
 12 42  1  0
 12 43  1  0
 13 44  1  0
 13 45  1  0
 14 46  1  0
 14 47  1  0
 15 48  1  0
 16 49  1  0
 17 50  1  0
 17 51  1  0
 18 52  1  0
 18 53  1  0
 19 54  1  0
 19 55  1  0
 20 56  1  0
 20 57  1  0
 21 58  1  0
 21 59  1  0
 22 60  1  0
 22 61  1  0
 23 62  1  0
 23 63  1  0
 25 64  1  0
 25 65  1  0
 26 66  1  0
 26 67  1  0
M  END
>  <IX_DELTA_E>  (58)
0.000

>  <IX_CONF_ID>  (58)
1

>  <IX_Q>  (58)
-0.0490
-0.0382
0.2082
-0.3710
0.6410
-0.6960
0.1660
-0.1600
-0.1600
-0.1600
-0.1600
-0.1600
-0.1600
-0.1600
-0.8191
0.2891
-0.1600
-0.1600
-0.1600
-0.1600
-0.1600
-0.1600
-0.1600
-0.5191
0.2091
0.0860
-0.6960
0.6410
-0.2420
0.1500
0.0800
0.0800
0.0800
0.0800
0.0800
0.0800
0.0800
0.0800
0.0800
0.0800
0.0800
0.0800
0.0800
0.0800
0.0800
0.0800
0.0800
0.4000
0.0800
0.0800
0.0800
0.0800
0.0800
0.0800
0.0800
0.0800
0.0800
0.0800
0.0800
0.0800
0.0800
0.0800
0.0800
0.0800
0.0800
0.0800
0.0800

>  <IX_ALOGP>  (58)
0.15510
0.15510
-0.20350
0.64820
-0.27830
0.18360
-0.20510
0.14410
0.14410
0.14410
0.14410
0.14410
0.14410
0.14410
-0.70960
-0.20510
0.14410
0.14410
0.14410
0.14410
0.14410
0.14410
0.14410
-0.31870
-0.20350
-0.20350
0.18360
-0.27830
0.64820
0.12300
0.12300
0.12300
0.12300
0.12300
0.12300
0.12300
0.12300
0.12300
0.12300
0.12300
0.12300
0.12300
0.12300
0.12300
0.12300
0.12300
0.12300
0.21420
0.12300
0.12300
0.12300
0.12300
0.12300
0.12300
0.12300
0.12300
0.12300
0.12300
0.12300
0.12300
0.12300
0.12300
0.12300
0.12300
0.12300
0.12300
0.12300

$$$$
454311
     RDKit          3D

 58 61  0  0  0  0  0  0  0  0999 V2000
    1.6090   -2.6245   -0.3396 C   0  0  0  0  0  0  0  0  0  0  0  0
    2.3633   -1.5874   -0.7143 C   0  0  0  0  0  0  0  0  0  0  0  0
    2.4318   -1.0767   -2.1263 C   0  0  0  0  0  0  0  0  0  0  0  0
    1.8408    0.6541   -2.2685 S   0  0  0  0  0  0  0  0  0  0  0  0
    0.2247    0.3658   -1.5154 C   0  0  0  0  0  0  0  0  0  0  0  0
   -0.0468    0.7750   -0.3065 N   0  0  0  0  0  0  0  0  0  0  0  0
    0.8361    1.5531    0.5625 C   0  0  0  0  0  0  0  0  0  0  0  0
    0.5003    1.2445    2.0296 C   0  0  0  0  0  0  0  0  0  0  0  0
    1.3819    2.0739    2.9725 C   0  0  0  0  0  0  0  0  0  0  0  0
    1.2330    3.5737    2.6870 C   0  0  0  0  0  0  0  0  0  0  0  0
    1.5367    3.8935    1.2183 C   0  0  0  0  0  0  0  0  0  0  0  0
    0.6645    3.0537    0.2761 C   0  0  0  0  0  0  0  0  0  0  0  0
   -0.7762   -0.3302   -2.2724 N   0  0  0  0  0  0  0  0  0  0  0  0
   -2.1322   -0.5584   -1.7544 C   0  0  0  0  0  0  0  0  0  0  0  0
   -3.0885   -0.8693   -2.9268 C   0  0  0  0  0  0  0  0  0  0  0  0
   -4.5734   -0.7352   -2.5677 C   0  0  0  0  0  0  0  0  0  0  0  0
   -5.0213   -1.6479   -1.4148 C   0  0  0  0  0  0  0  0  0  0  0  0
   -4.5568   -1.1248   -0.0459 C   0  0  0  0  0  0  0  0  0  0  0  0
   -3.1599   -1.6087    0.3836 C   0  0  0  0  0  0  0  0  0  0  0  0
   -2.1079   -1.7224   -0.7344 C   0  0  0  0  0  0  0  0  0  0  0  0
    3.0662   -0.9819    0.3598 N   0  0  0  0  0  0  0  0  0  0  0  0
    4.4077   -0.4282    0.3874 C   0  0  0  0  0  0  0  0  0  0  0  0
    4.9335   -0.8676    1.7699 C   0  0  0  0  0  0  0  0  0  0  0  0
    3.9076   -1.7636    2.3034 N   0  0  0  0  0  0  0  0  0  0  0  0
    2.8854   -1.7245    1.5248 C   0  0  0  0  0  0  0  0  0  0  0  0
    1.6246   -2.9764    1.4354 S   0  0  0  0  0  0  0  0  0  0  0  0
    1.0091   -3.1965   -1.0359 H   0  0  0  0  0  0  0  0  0  0  0  0
    1.8310   -1.7152   -2.8115 H   0  0  0  0  0  0  0  0  0  0  0  0
    3.4863   -1.1156   -2.4696 H   0  0  0  0  0  0  0  0  0  0  0  0
    1.8937    1.2743    0.3921 H   0  0  0  0  0  0  0  0  0  0  0  0
   -0.5722    1.4651    2.2303 H   0  0  0  0  0  0  0  0  0  0  0  0
    0.6675    0.1633    2.2309 H   0  0  0  0  0  0  0  0  0  0  0  0
    1.0884    1.8694    4.0241 H   0  0  0  0  0  0  0  0  0  0  0  0
    2.4452    1.7741    2.8519 H   0  0  0  0  0  0  0  0  0  0  0  0
    1.9341    4.1422    3.3366 H   0  0  0  0  0  0  0  0  0  0  0  0
    0.1981    3.8973    2.9332 H   0  0  0  0  0  0  0  0  0  0  0  0
    2.6098    3.6952    1.0068 H   0  0  0  0  0  0  0  0  0  0  0  0
    1.3429    4.9696    1.0340 H   0  0  0  0  0  0  0  0  0  0  0  0
   -0.4011    3.3425    0.3982 H   0  0  0  0  0  0  0  0  0  0  0  0
    0.9567    3.2693   -0.7725 H   0  0  0  0  0  0  0  0  0  0  0  0
   -0.5297   -0.6453   -3.2381 H   0  0  0  0  0  0  0  0  0  0  0  0
   -2.4750    0.3796   -1.2644 H   0  0  0  0  0  0  0  0  0  0  0  0
   -2.8917   -1.8866   -3.3313 H   0  0  0  0  0  0  0  0  0  0  0  0
   -2.8862   -0.1517   -3.7530 H   0  0  0  0  0  0  0  0  0  0  0  0
   -5.1663   -0.9980   -3.4711 H   0  0  0  0  0  0  0  0  0  0  0  0
   -4.8066    0.3261   -2.3318 H   0  0  0  0  0  0  0  0  0  0  0  0
   -6.1319   -1.6640   -1.4165 H   0  0  0  0  0  0  0  0  0  0  0  0
   -4.6864   -2.6948   -1.5839 H   0  0  0  0  0  0  0  0  0  0  0  0
   -5.2833   -1.4622    0.7255 H   0  0  0  0  0  0  0  0  0  0  0  0
   -4.5884   -0.0126   -0.0247 H   0  0  0  0  0  0  0  0  0  0  0  0
   -2.7793   -0.9145    1.1645 H   0  0  0  0  0  0  0  0  0  0  0  0
   -3.2572   -2.6070    0.8653 H   0  0  0  0  0  0  0  0  0  0  0  0
   -2.2247   -2.6991   -1.2546 H   0  0  0  0  0  0  0  0  0  0  0  0
   -1.1161   -1.7684   -0.2365 H   0  0  0  0  0  0  0  0  0  0  0  0
    4.3688    0.6804    0.3013 H   0  0  0  0  0  0  0  0  0  0  0  0
    5.0283   -0.8646   -0.4289 H   0  0  0  0  0  0  0  0  0  0  0  0
    5.8943   -1.4158    1.6692 H   0  0  0  0  0  0  0  0  0  0  0  0
    5.0577    0.0039    2.4494 H   0  0  0  0  0  0  0  0  0  0  0  0
  1  2  2  0
  2  3  1  0
  3  4  1  0
  4  5  1  0
  5  6  2  0
  6  7  1  0
  7  8  1  0
  8  9  1  0
  9 10  1  0
 10 11  1  0
 11 12  1  0
  5 13  1  0
 13 14  1  0
 14 15  1  0
 15 16  1  0
 16 17  1  0
 17 18  1  0
 18 19  1  0
 19 20  1  0
  2 21  1  0
 21 22  1  0
 22 23  1  0
 23 24  1  0
 24 25  2  0
 25 26  1  0
 26  1  1  0
 12  7  1  0
 20 14  1  0
 25 21  1  0
  1 27  1  0
  3 28  1  0
  3 29  1  0
  7 30  1  0
  8 31  1  0
  8 32  1  0
  9 33  1  0
  9 34  1  0
 10 35  1  0
 10 36  1  0
 11 37  1  0
 11 38  1  0
 12 39  1  0
 12 40  1  0
 13 41  1  0
 14 42  1  0
 15 43  1  0
 15 44  1  0
 16 45  1  0
 16 46  1  0
 17 47  1  0
 17 48  1  0
 18 49  1  0
 18 50  1  0
 19 51  1  0
 19 52  1  0
 20 53  1  0
 20 54  1  0
 22 55  1  0
 22 56  1  0
 23 57  1  0
 23 58  1  0
M  END
>  <IX_DELTA_E>  (63)
0.000

>  <IX_CONF_ID>  (63)
1

>  <IX_Q>  (63)
-0.0490
-0.0382
0.2082
-0.3710
0.6410
-0.6960
0.1660
-0.1600
-0.1600
-0.1600
-0.1600
-0.1600
-0.8191
0.2891
-0.1600
-0.1600
-0.1600
-0.1600
-0.1600
-0.1600
-0.5191
0.2091
0.0860
-0.6960
0.6410
-0.2420
0.1500
0.0800
0.0800
0.0800
0.0800
0.0800
0.0800
0.0800
0.0800
0.0800
0.0800
0.0800
0.0800
0.0800
0.4000
0.0800
0.0800
0.0800
0.0800
0.0800
0.0800
0.0800
0.0800
0.0800
0.0800
0.0800
0.0800
0.0800
0.0800
0.0800
0.0800
0.0800

>  <IX_ALOGP>  (63)
0.15510
0.15510
-0.20350
0.64820
-0.27830
0.18360
-0.20510
0.14410
0.14410
0.14410
0.14410
0.14410
-0.70960
-0.20510
0.14410
0.14410
0.14410
0.14410
0.14410
0.14410
-0.31870
-0.20350
-0.20350
0.18360
-0.27830
0.64820
0.12300
0.12300
0.12300
0.12300
0.12300
0.12300
0.12300
0.12300
0.12300
0.12300
0.12300
0.12300
0.12300
0.12300
0.21420
0.12300
0.12300
0.12300
0.12300
0.12300
0.12300
0.12300
0.12300
0.12300
0.12300
0.12300
0.12300
0.12300
0.12300
0.12300
0.12300
0.12300

$$$$
27307
     RDKit          3D

 32 33  0  0  0  0  0  0  0  0999 V2000
    3.2802   -1.7563    1.4101 C   0  0  0  0  0  0  0  0  0  0  0  0
    2.8197   -0.9035    0.2597 C   0  0  0  0  0  0  0  0  0  0  0  0
    1.5379   -0.3475    0.2871 C   0  0  0  0  0  0  0  0  0  0  0  0
    1.0917    0.4461   -0.7345 N   0  0  0  0  0  0  0  0  0  0  0  0
   -0.2791    0.9967   -0.6920 C   0  0  1  0  0  0  0  0  0  0  0  0
   -1.2816   -0.0078   -1.2311 C   0  0  0  0  0  0  0  0  0  0  0  0
   -2.5326    0.3379   -0.4768 C   0  0  2  0  0  0  0  0  0  0  0  0
   -3.3076    1.3260   -1.2245 N   0  0  0  0  0  0  0  0  0  0  0  0
   -4.4762    1.1065   -1.5452 N   0  0  0  0  0  0  0  0  0  0  0  0
   -5.6434    0.8875   -1.8657 N   0  0  0  0  0  0  0  0  0  0  0  0
   -1.9942    0.9599    0.8168 C   0  0  1  0  0  0  0  0  0  0  0  0
   -2.0813   -0.0246    1.9890 C   0  0  0  0  0  0  0  0  0  0  0  0
   -1.5586    0.5680    3.1459 O   0  0  0  0  0  0  0  0  0  0  0  0
   -0.6457    1.3412    0.6272 O   0  0  0  0  0  0  0  0  0  0  0  0
    1.8988    0.6604   -1.8239 C   0  0  0  0  0  0  0  0  0  0  0  0
    1.4931    1.3532   -2.7976 O   0  0  0  0  0  0  0  0  0  0  0  0
    3.1482    0.1232   -1.8702 N   0  0  0  0  0  0  0  0  0  0  0  0
    3.6264   -0.6444   -0.8564 C   0  0  0  0  0  0  0  0  0  0  0  0
    4.7915   -1.1205   -0.9338 O   0  0  0  0  0  0  0  0  0  0  0  0
    4.3128   -2.1366    1.2649 H   0  0  0  0  0  0  0  0  0  0  0  0
    2.6006   -2.6272    1.5236 H   0  0  0  0  0  0  0  0  0  0  0  0
    3.2581   -1.1587    2.3462 H   0  0  0  0  0  0  0  0  0  0  0  0
    0.8990   -0.5569    1.1368 H   0  0  0  0  0  0  0  0  0  0  0  0
   -0.3420    1.9288   -1.2982 H   0  0  0  0  0  0  0  0  0  0  0  0
   -1.4037    0.0785   -2.3332 H   0  0  0  0  0  0  0  0  0  0  0  0
   -0.9708   -1.0456   -0.9757 H   0  0  0  0  0  0  0  0  0  0  0  0
   -3.1446   -0.5765   -0.2937 H   0  0  0  0  0  0  0  0  0  0  0  0
   -2.5857    1.8635    1.0853 H   0  0  0  0  0  0  0  0  0  0  0  0
   -1.5086   -0.9477    1.7478 H   0  0  0  0  0  0  0  0  0  0  0  0
   -3.1467   -0.2981    2.1637 H   0  0  0  0  0  0  0  0  0  0  0  0
   -1.6074   -0.1255    3.8552 H   0  0  0  0  0  0  0  0  0  0  0  0
    3.7517    0.3002   -2.7066 H   0  0  0  0  0  0  0  0  0  0  0  0
  1  2  1  0
  2  3  2  0
  3  4  1  0
  4  5  1  0
  5  6  1  0
  6  7  1  0
  7  8  1  0
  8  9  2  3
  9 10  2  0
  7 11  1  0
 11 12  1  0
 12 13  1  0
 11 14  1  0
  4 15  1  0
 15 16  2  0
 15 17  1  0
 17 18  1  0
 18 19  2  0
 18  2  1  0
 14  5  1  0
  1 20  1  0
  1 21  1  0
  1 22  1  0
  3 23  1  0
  5 24  1  6
  6 25  1  0
  6 26  1  0
  7 27  1  1
 11 28  1  1
 12 29  1  0
 12 30  1  0
 13 31  1  0
 17 32  1  0
M  CHG  2   9   1  10  -1
M  END
>  <IX_DELTA_E>  (66)
0.000

>  <IX_CONF_ID>  (66)
1

>  <IX_Q>  (66)
-0.1018
-0.1238
-0.0410
-0.4691
0.5001
-0.1600
0.1660
-0.5639
0.6879
-0.3700
0.2000
0.1200
-0.6800
-0.5600
0.6900
-0.5700
-0.4900
0.6156
-0.5700
0.0800
0.0800
0.0800
0.1500
0.0800
0.0800
0.0800
0.0800
0.0800
0.0800
0.0800
0.4000
0.3700

>  <IX_ALOGP>  (66)
0.14410
0.15510
0.15510
-0.31870
-0.20510
0.14410
-0.20510
0.18360
0.28870
0.28870
-0.20510
-0.20350
-0.28930
-0.06840
-0.27830
0.48330
-0.70960
-0.27830
-0.15260
0.12300
0.12300
0.12300
0.12300
0.12300
0.12300
0.12300
0.12300
0.12300
0.12300
0.12300
-0.26770
0.21420

$$$$
454385
     RDKit          3D

 61 64  0  0  0  0  0  0  0  0999 V2000
    3.2128    1.1526    1.3502 C   0  0  0  0  0  0  0  0  0  0  0  0
    3.2211    0.2755    0.3422 C   0  0  0  0  0  0  0  0  0  0  0  0
    3.5092    0.6375   -1.0881 C   0  0  0  0  0  0  0  0  0  0  0  0
    2.2249    1.7131   -1.8339 S   0  0  0  0  0  0  0  0  0  0  0  0
    0.7842    0.7756   -1.2675 C   0  0  0  0  0  0  0  0  0  0  0  0
    0.0058    1.2325   -0.3286 N   0  0  0  0  0  0  0  0  0  0  0  0
    0.1136    2.5394    0.3216 C   0  0  0  0  0  0  0  0  0  0  0  0
   -0.5381    2.4659    1.7089 C   0  0  0  0  0  0  0  0  0  0  0  0
   -0.4860    3.8324    2.4077 C   0  0  0  0  0  0  0  0  0  0  0  0
   -1.1661    4.9131    1.5572 C   0  0  0  0  0  0  0  0  0  0  0  0
   -0.5541    4.9791    0.1521 C   0  0  0  0  0  0  0  0  0  0  0  0
   -0.5911    3.6070   -0.5336 C   0  0  0  0  0  0  0  0  0  0  0  0
    0.4800   -0.4777   -1.9007 N   0  0  0  0  0  0  0  0  0  0  0  0
   -0.6177   -1.3735   -1.5059 C   0  0  0  0  0  0  0  0  0  0  0  0
   -1.9834   -0.6350   -1.5942 C   0  0  0  0  0  0  0  0  0  0  0  0
   -3.1224   -1.4225   -2.2735 C   0  0  0  0  0  0  0  0  0  0  0  0
   -3.2810   -2.8995   -1.8774 C   0  0  0  0  0  0  0  0  0  0  0  0
   -3.6742   -3.1584   -0.4153 C   0  0  0  0  0  0  0  0  0  0  0  0
   -2.6345   -2.7966    0.6636 C   0  0  0  0  0  0  0  0  0  0  0  0
   -1.1767   -3.1578    0.3145 C   0  0  0  0  0  0  0  0  0  0  0  0
   -0.3221   -1.9472   -0.0993 C   0  0  0  0  0  0  0  0  0  0  0  0
    2.9420   -1.0542    0.7437 N   0  0  0  0  0  0  0  0  0  0  0  0
    3.6066   -2.2698    0.3096 C   0  0  0  0  0  0  0  0  0  0  0  0
    3.6872   -3.1046    1.6006 C   0  0  0  0  0  0  0  0  0  0  0  0
    3.2779   -2.1915    2.6676 N   0  0  0  0  0  0  0  0  0  0  0  0
    2.8227   -1.1146    2.1337 C   0  0  0  0  0  0  0  0  0  0  0  0
    2.7482    0.4615    2.9567 S   0  0  0  0  0  0  0  0  0  0  0  0
    3.4628    2.1973    1.2200 H   0  0  0  0  0  0  0  0  0  0  0  0
    3.5943   -0.2832   -1.7021 H   0  0  0  0  0  0  0  0  0  0  0  0
    4.4857    1.1641   -1.1384 H   0  0  0  0  0  0  0  0  0  0  0  0
    1.1788    2.8188    0.4607 H   0  0  0  0  0  0  0  0  0  0  0  0
   -0.0003    1.7186    2.3302 H   0  0  0  0  0  0  0  0  0  0  0  0
   -1.5956    2.1360    1.6129 H   0  0  0  0  0  0  0  0  0  0  0  0
    0.5746    4.1154    2.5942 H   0  0  0  0  0  0  0  0  0  0  0  0
   -1.0020    3.7641    3.3875 H   0  0  0  0  0  0  0  0  0  0  0  0
   -1.0414    5.9005    2.0532 H   0  0  0  0  0  0  0  0  0  0  0  0
   -2.2564    4.7019    1.4835 H   0  0  0  0  0  0  0  0  0  0  0  0
    0.4968    5.3356    0.2181 H   0  0  0  0  0  0  0  0  0  0  0  0
   -1.1263    5.7077   -0.4595 H   0  0  0  0  0  0  0  0  0  0  0  0
   -1.6496    3.3149   -0.7053 H   0  0  0  0  0  0  0  0  0  0  0  0
   -0.0920    3.6879   -1.5236 H   0  0  0  0  0  0  0  0  0  0  0  0
    1.0968   -0.7865   -2.6887 H   0  0  0  0  0  0  0  0  0  0  0  0
   -0.6063   -2.2136   -2.2303 H   0  0  0  0  0  0  0  0  0  0  0  0
   -2.3115   -0.2678   -0.6037 H   0  0  0  0  0  0  0  0  0  0  0  0
   -1.8558    0.2869   -2.2004 H   0  0  0  0  0  0  0  0  0  0  0  0
   -4.0839   -0.8902   -2.0924 H   0  0  0  0  0  0  0  0  0  0  0  0
   -2.9480   -1.3946   -3.3713 H   0  0  0  0  0  0  0  0  0  0  0  0
   -2.4022   -3.4992   -2.1750 H   0  0  0  0  0  0  0  0  0  0  0  0
   -4.1079   -3.2983   -2.5022 H   0  0  0  0  0  0  0  0  0  0  0  0
   -3.8936   -4.2431   -0.3217 H   0  0  0  0  0  0  0  0  0  0  0  0
   -4.6194   -2.6200   -0.1914 H   0  0  0  0  0  0  0  0  0  0  0  0
   -2.7306   -1.7354    0.9629 H   0  0  0  0  0  0  0  0  0  0  0  0
   -2.9169   -3.3608    1.5794 H   0  0  0  0  0  0  0  0  0  0  0  0
   -0.7064   -3.5729    1.2346 H   0  0  0  0  0  0  0  0  0  0  0  0
   -1.1162   -3.9700   -0.4404 H   0  0  0  0  0  0  0  0  0  0  0  0
   -0.3978   -1.1544    0.6745 H   0  0  0  0  0  0  0  0  0  0  0  0
    0.7297   -2.2909   -0.0917 H   0  0  0  0  0  0  0  0  0  0  0  0
    4.6263   -2.0409   -0.0685 H   0  0  0  0  0  0  0  0  0  0  0  0
    3.0126   -2.7841   -0.4736 H   0  0  0  0  0  0  0  0  0  0  0  0
    2.9900   -3.9667    1.5612 H   0  0  0  0  0  0  0  0  0  0  0  0
    4.7231   -3.4593    1.7783 H   0  0  0  0  0  0  0  0  0  0  0  0
  1  2  2  0
  2  3  1  0
  3  4  1  0
  4  5  1  0
  5  6  2  0
  6  7  1  0
  7  8  1  0
  8  9  1  0
  9 10  1  0
 10 11  1  0
 11 12  1  0
  5 13  1  0
 13 14  1  0
 14 15  1  0
 15 16  1  0
 16 17  1  0
 17 18  1  0
 18 19  1  0
 19 20  1  0
 20 21  1  0
  2 22  1  0
 22 23  1  0
 23 24  1  0
 24 25  1  0
 25 26  2  0
 26 27  1  0
 27  1  1  0
 12  7  1  0
 21 14  1  0
 26 22  1  0
  1 28  1  0
  3 29  1  0
  3 30  1  0
  7 31  1  0
  8 32  1  0
  8 33  1  0
  9 34  1  0
  9 35  1  0
 10 36  1  0
 10 37  1  0
 11 38  1  0
 11 39  1  0
 12 40  1  0
 12 41  1  0
 13 42  1  0
 14 43  1  0
 15 44  1  0
 15 45  1  0
 16 46  1  0
 16 47  1  0
 17 48  1  0
 17 49  1  0
 18 50  1  0
 18 51  1  0
 19 52  1  0
 19 53  1  0
 20 54  1  0
 20 55  1  0
 21 56  1  0
 21 57  1  0
 23 58  1  0
 23 59  1  0
 24 60  1  0
 24 61  1  0
M  END
>  <IX_DELTA_E>  (78)
0.000

>  <IX_CONF_ID>  (78)
1

>  <IX_Q>  (78)
-0.0490
-0.0382
0.2082
-0.3710
0.6410
-0.6960
0.1660
-0.1600
-0.1600
-0.1600
-0.1600
-0.1600
-0.8191
0.2891
-0.1600
-0.1600
-0.1600
-0.1600
-0.1600
-0.1600
-0.1600
-0.5191
0.2091
0.0860
-0.6960
0.6410
-0.2420
0.1500
0.0800
0.0800
0.0800
0.0800
0.0800
0.0800
0.0800
0.0800
0.0800
0.0800
0.0800
0.0800
0.0800
0.4000
0.0800
0.0800
0.0800
0.0800
0.0800
0.0800
0.0800
0.0800
0.0800
0.0800
0.0800
0.0800
0.0800
0.0800
0.0800
0.0800
0.0800
0.0800
0.0800

>  <IX_ALOGP>  (78)
0.15510
0.15510
-0.20350
0.64820
-0.27830
0.18360
-0.20510
0.14410
0.14410
0.14410
0.14410
0.14410
-0.70960
-0.20510
0.14410
0.14410
0.14410
0.14410
0.14410
0.14410
0.14410
-0.31870
-0.20350
-0.20350
0.18360
-0.27830
0.64820
0.12300
0.12300
0.12300
0.12300
0.12300
0.12300
0.12300
0.12300
0.12300
0.12300
0.12300
0.12300
0.12300
0.12300
0.21420
0.12300
0.12300
0.12300
0.12300
0.12300
0.12300
0.12300
0.12300
0.12300
0.12300
0.12300
0.12300
0.12300
0.12300
0.12300
0.12300
0.12300
0.12300
0.12300

$$$$
506865
     RDKit          3D

 73 75  0  0  0  0  0  0  0  0999 V2000
    9.6049   -2.1876    1.4508 C   0  0  0  0  0  0  0  0  0  0  0  0
    9.6881   -1.7268    0.1365 C   0  0  0  0  0  0  0  0  0  0  0  0
    9.0673   -0.5277   -0.2215 C   0  0  0  0  0  0  0  0  0  0  0  0
    8.3689    0.2017    0.7510 C   0  0  0  0  0  0  0  0  0  0  0  0
    7.6792    1.4953    0.4022 C   0  0  0  0  0  0  0  0  0  0  0  0
    6.3744    1.2666   -0.2436 N   0  0  0  0  0  0  0  0  0  0  0  0
    5.3838    0.7010    0.6900 C   0  0  0  0  0  0  0  0  0  0  0  0
    4.0037    0.7173    0.0803 C   0  0  0  0  0  0  0  0  0  0  0  0
    3.3115    1.9320   -0.0588 C   0  0  0  0  0  0  0  0  0  0  0  0
    2.0401    1.9569   -0.6394 C   0  0  0  0  0  0  0  0  0  0  0  0
    1.4376    0.7686   -1.0832 C   0  0  0  0  0  0  0  0  0  0  0  0
    0.0718    0.8032   -1.7365 C   0  0  0  0  0  0  0  0  0  0  0  0
   -0.9886    0.2011   -0.8882 N   0  0  0  0  0  0  0  0  0  0  0  0
   -2.2437    0.0485   -1.6923 C   0  0  0  0  0  0  0  0  0  0  0  0
   -2.7303   -1.4150   -1.7481 C   0  0  0  0  0  0  0  0  0  0  0  0
   -4.1899   -1.5440   -2.2216 C   0  0  0  0  0  0  0  0  0  0  0  0
   -5.1309   -0.8873   -1.2908 N   0  0  0  0  0  0  0  0  0  0  0  0
   -6.4376   -1.5614   -1.2696 C   0  0  0  0  0  0  0  0  0  0  0  0
   -7.4772   -0.7947   -0.4188 C   0  0  0  0  0  0  0  0  0  0  0  0
   -7.0657   -0.6333    0.9950 N   0  0  0  0  0  0  0  0  0  0  0  0
   -6.5354    0.7200    1.2662 C   0  0  0  0  0  0  0  0  0  0  0  0
   -5.6909    0.7800    2.5584 C   0  0  0  0  0  0  0  0  0  0  0  0
   -4.2785    0.1675    2.4353 C   0  0  0  0  0  0  0  0  0  0  0  0
   -3.3746    0.9964    1.6157 N   0  0  0  0  0  0  0  0  0  0  0  0
   -2.0828    0.3157    1.4035 C   0  0  0  0  0  0  0  0  0  0  0  0
   -1.2160    1.0320    0.3312 C   0  0  0  0  0  0  0  0  0  0  0  0
    2.1259   -0.4439   -0.9371 C   0  0  0  0  0  0  0  0  0  0  0  0
    3.3994   -0.4707   -0.3584 C   0  0  0  0  0  0  0  0  0  0  0  0
    8.2995   -0.2717    2.0262 N   0  0  0  0  0  0  0  0  0  0  0  0
    8.8999   -1.4344    2.3932 C   0  0  0  0  0  0  0  0  0  0  0  0
   10.0858   -3.1115    1.7408 H   0  0  0  0  0  0  0  0  0  0  0  0
   10.2329   -2.2975   -0.6037 H   0  0  0  0  0  0  0  0  0  0  0  0
    9.1350   -0.1695   -1.2394 H   0  0  0  0  0  0  0  0  0  0  0  0
    7.5550    2.1174    1.3187 H   0  0  0  0  0  0  0  0  0  0  0  0
    8.3330    2.0775   -0.2876 H   0  0  0  0  0  0  0  0  0  0  0  0
    6.4916    0.6233   -1.0616 H   0  0  0  0  0  0  0  0  0  0  0  0
    6.0312    2.1902   -0.5986 H   0  0  0  0  0  0  0  0  0  0  0  0
    5.3594    1.2822    1.6374 H   0  0  0  0  0  0  0  0  0  0  0  0
    5.6695   -0.3424    0.9490 H   0  0  0  0  0  0  0  0  0  0  0  0
    3.7520    2.8567    0.2915 H   0  0  0  0  0  0  0  0  0  0  0  0
    1.5243    2.9018   -0.7387 H   0  0  0  0  0  0  0  0  0  0  0  0
   -0.2045    1.8481   -2.0097 H   0  0  0  0  0  0  0  0  0  0  0  0
    0.1591    0.2407   -2.6946 H   0  0  0  0  0  0  0  0  0  0  0  0
   -0.6393   -0.7396   -0.5818 H   0  0  0  0  0  0  0  0  0  0  0  0
   -2.1186    0.3889   -2.7456 H   0  0  0  0  0  0  0  0  0  0  0  0
   -3.0477    0.7026   -1.3062 H   0  0  0  0  0  0  0  0  0  0  0  0
   -2.0787   -1.9795   -2.4509 H   0  0  0  0  0  0  0  0  0  0  0  0
   -2.6391   -1.9055   -0.7570 H   0  0  0  0  0  0  0  0  0  0  0  0
   -4.4109   -2.6315   -2.3141 H   0  0  0  0  0  0  0  0  0  0  0  0
   -4.2903   -1.1032   -3.2379 H   0  0  0  0  0  0  0  0  0  0  0  0
   -4.7359   -0.8999   -0.3237 H   0  0  0  0  0  0  0  0  0  0  0  0
   -5.2655    0.1033   -1.5985 H   0  0  0  0  0  0  0  0  0  0  0  0
   -6.3267   -2.5909   -0.8632 H   0  0  0  0  0  0  0  0  0  0  0  0
   -6.8323   -1.6447   -2.3063 H   0  0  0  0  0  0  0  0  0  0  0  0
   -7.6980    0.1870   -0.8955 H   0  0  0  0  0  0  0  0  0  0  0  0
   -8.4275   -1.3736   -0.4584 H   0  0  0  0  0  0  0  0  0  0  0  0
   -7.9071   -0.7717    1.6026 H   0  0  0  0  0  0  0  0  0  0  0  0
   -6.3839   -1.3773    1.2629 H   0  0  0  0  0  0  0  0  0  0  0  0
   -7.3926    1.4192    1.3895 H   0  0  0  0  0  0  0  0  0  0  0  0
   -5.9536    1.1102    0.4090 H   0  0  0  0  0  0  0  0  0  0  0  0
   -5.5912    1.8403    2.8722 H   0  0  0  0  0  0  0  0  0  0  0  0
   -6.2406    0.2559    3.3687 H   0  0  0  0  0  0  0  0  0  0  0  0
   -3.8538    0.0765    3.4600 H   0  0  0  0  0  0  0  0  0  0  0  0
   -4.3503   -0.8615    2.0260 H   0  0  0  0  0  0  0  0  0  0  0  0
   -3.2013    1.9061    2.1082 H   0  0  0  0  0  0  0  0  0  0  0  0
   -3.8138    1.1956    0.6931 H   0  0  0  0  0  0  0  0  0  0  0  0
   -1.5232    0.3003    2.3663 H   0  0  0  0  0  0  0  0  0  0  0  0
   -2.2398   -0.7474    1.1236 H   0  0  0  0  0  0  0  0  0  0  0  0
   -1.6530    2.0209    0.0554 H   0  0  0  0  0  0  0  0  0  0  0  0
   -0.2437    1.2618    0.8210 H   0  0  0  0  0  0  0  0  0  0  0  0
    1.6768   -1.3700   -1.2748 H   0  0  0  0  0  0  0  0  0  0  0  0
    3.9141   -1.4198   -0.2579 H   0  0  0  0  0  0  0  0  0  0  0  0
    8.8289   -1.7746    3.4161 H   0  0  0  0  0  0  0  0  0  0  0  0
  1  2  2  0
  2  3  1  0
  3  4  2  0
  4  5  1  0
  5  6  1  0
  6  7  1  0
  7  8  1  0
  8  9  2  0
  9 10  1  0
 10 11  2  0
 11 12  1  0
 12 13  1  0
 13 14  1  0
 14 15  1  0
 15 16  1  0
 16 17  1  0
 17 18  1  0
 18 19  1  0
 19 20  1  0
 20 21  1  0
 21 22  1  0
 22 23  1  0
 23 24  1  0
 24 25  1  0
 25 26  1  0
 11 27  1  0
 27 28  2  0
  4 29  1  0
 29 30  2  0
 30  1  1  0
 28  8  1  0
 26 13  1  0
  1 31  1  0
  2 32  1  0
  3 33  1  0
  5 34  1  0
  5 35  1  0
  6 36  1  0
  6 37  1  0
  7 38  1  0
  7 39  1  0
  9 40  1  0
 10 41  1  0
 12 42  1  0
 12 43  1  0
 13 44  1  0
 14 45  1  0
 14 46  1  0
 15 47  1  0
 15 48  1  0
 16 49  1  0
 16 50  1  0
 17 51  1  0
 17 52  1  0
 18 53  1  0
 18 54  1  0
 19 55  1  0
 19 56  1  0
 20 57  1  0
 20 58  1  0
 21 59  1  0
 21 60  1  0
 22 61  1  0
 22 62  1  0
 23 63  1  0
 23 64  1  0
 24 65  1  0
 24 66  1  0
 25 67  1  0
 25 68  1  0
 26 69  1  0
 26 70  1  0
 27 71  1  0
 28 72  1  0
 30 73  1  0
M  CHG  5   6   1  13   1  17   1  20   1  24   1
M  END
>  <IX_DELTA_E>  (84)
0.000

>  <IX_CONF_ID>  (84)
1

>  <IX_Q>  (84)
-0.1500
-0.1500
-0.1500
0.1665
0.4865
-0.9060
0.4865
-0.1435
-0.1500
-0.1500
-0.1435
0.4865
-0.9590
0.3430
-0.1600
0.3430
-0.9060
0.3430
0.3430
-0.9060
0.3430
-0.1600
0.3430
-0.9060
0.3430
0.3430
-0.1500
-0.1500
-0.6200
0.1600
0.1500
0.1500
0.1500
0.0800
0.0800
0.4500
0.4500
0.0800
0.0800
0.1500
0.1500
0.0800
0.0800
0.4500
0.0800
0.0800
0.0800
0.0800
0.0800
0.0800
0.4500
0.4500
0.0800
0.0800
0.0800
0.0800
0.4500
0.4500
0.0800
0.0800
0.0800
0.0800
0.0800
0.0800
0.4500
0.4500
0.0800
0.0800
0.0800
0.0800
0.1500
0.1500
0.1500

>  <IX_ALOGP>  (84)
0.15810
0.15810
0.15810
0.13600
-0.05160
-1.95000
-0.05160
0.13600
0.15810
0.15810
0.13600
-0.05160
-1.95000
-0.20350
0.14410
-0.20350
-1.95000
-0.20350
-0.20350
-1.95000
-0.20350
0.14410
-0.20350
-1.95000
-0.20350
-0.20350
0.15810
0.15810
-0.32390
0.15810
0.12300
0.12300
0.12300
0.12300
0.12300
0.21420
0.21420
0.12300
0.12300
0.12300
0.12300
0.12300
0.12300
0.21420
0.12300
0.12300
0.12300
0.12300
0.12300
0.12300
0.21420
0.21420
0.12300
0.12300
0.12300
0.12300
0.21420
0.21420
0.12300
0.12300
0.12300
0.12300
0.12300
0.12300
0.21420
0.21420
0.12300
0.12300
0.12300
0.12300
0.12300
0.12300
0.12300

$$$$
454219
     RDKit          3D

 55 58  0  0  0  0  0  0  0  0999 V2000
    3.5997    1.6529   -0.9770 C   0  0  0  0  0  0  0  0  0  0  0  0
    3.1890    0.4161   -0.6798 C   0  0  0  0  0  0  0  0  0  0  0  0
    1.9321    0.1239    0.0824 C   0  0  0  0  0  0  0  0  0  0  0  0
    0.5105    0.1773   -1.0602 S   0  0  0  0  0  0  0  0  0  0  0  0
   -0.7151   -0.0270    0.2432 C   0  0  0  0  0  0  0  0  0  0  0  0
   -1.4257    0.9648    0.7086 N   0  0  0  0  0  0  0  0  0  0  0  0
   -1.4609    2.3825    0.3225 C   0  0  0  0  0  0  0  0  0  0  0  0
   -0.1237    3.1081    0.5640 C   0  0  0  0  0  0  0  0  0  0  0  0
   -0.2587    4.6005    0.2345 C   0  0  0  0  0  0  0  0  0  0  0  0
   -0.7443    4.8000   -1.2088 C   0  0  0  0  0  0  0  0  0  0  0  0
   -2.0760    4.0745   -1.4515 C   0  0  0  0  0  0  0  0  0  0  0  0
   -1.9622    2.5792   -1.1215 C   0  0  0  0  0  0  0  0  0  0  0  0
   -0.9227   -1.3483    0.7642 N   0  0  0  0  0  0  0  0  0  0  0  0
   -2.0866   -1.7006    1.5915 C   0  0  0  0  0  0  0  0  0  0  0  0
   -3.3581   -1.8011    0.7251 C   0  0  0  0  0  0  0  0  0  0  0  0
   -3.3219   -3.0256   -0.1994 C   0  0  0  0  0  0  0  0  0  0  0  0
   -3.1349   -4.3138    0.6091 C   0  0  0  0  0  0  0  0  0  0  0  0
   -1.8603   -4.2519    1.4575 C   0  0  0  0  0  0  0  0  0  0  0  0
   -1.8493   -3.0132    2.3684 C   0  0  0  0  0  0  0  0  0  0  0  0
    4.0130   -0.6074   -1.2217 N   0  0  0  0  0  0  0  0  0  0  0  0
    4.4097   -1.8583   -0.6031 C   0  0  0  0  0  0  0  0  0  0  0  0
    5.8893   -1.9999   -1.0121 C   0  0  0  0  0  0  0  0  0  0  0  0
    6.2309   -0.7264   -1.6419 N   0  0  0  0  0  0  0  0  0  0  0  0
    5.1542   -0.0386   -1.7932 C   0  0  0  0  0  0  0  0  0  0  0  0
    5.1051    1.7330   -1.9793 S   0  0  0  0  0  0  0  0  0  0  0  0
    3.0711    2.5422   -0.6543 H   0  0  0  0  0  0  0  0  0  0  0  0
    1.9928   -0.8869    0.5374 H   0  0  0  0  0  0  0  0  0  0  0  0
    1.8034    0.8615    0.9042 H   0  0  0  0  0  0  0  0  0  0  0  0
   -2.2098    2.8627    0.9918 H   0  0  0  0  0  0  0  0  0  0  0  0
    0.6739    2.6924   -0.0787 H   0  0  0  0  0  0  0  0  0  0  0  0
    0.1806    2.9911    1.6269 H   0  0  0  0  0  0  0  0  0  0  0  0
   -0.9724    5.0794    0.9397 H   0  0  0  0  0  0  0  0  0  0  0  0
    0.7290    5.0932    0.3614 H   0  0  0  0  0  0  0  0  0  0  0  0
    0.0236    4.4157   -1.9165 H   0  0  0  0  0  0  0  0  0  0  0  0
   -0.8779    5.8853   -1.4049 H   0  0  0  0  0  0  0  0  0  0  0  0
   -2.8718    4.5369   -0.8252 H   0  0  0  0  0  0  0  0  0  0  0  0
   -2.3681    4.1939   -2.5174 H   0  0  0  0  0  0  0  0  0  0  0  0
   -1.2706    2.1064   -1.8494 H   0  0  0  0  0  0  0  0  0  0  0  0
   -2.9609    2.1034   -1.2339 H   0  0  0  0  0  0  0  0  0  0  0  0
   -0.2322   -2.0858    0.5030 H   0  0  0  0  0  0  0  0  0  0  0  0
   -2.2408   -0.8994    2.3493 H   0  0  0  0  0  0  0  0  0  0  0  0
   -3.4791   -0.8816    0.1119 H   0  0  0  0  0  0  0  0  0  0  0  0
   -4.2463   -1.8731    1.3915 H   0  0  0  0  0  0  0  0  0  0  0  0
   -4.2769   -3.0867   -0.7670 H   0  0  0  0  0  0  0  0  0  0  0  0
   -2.4933   -2.9202   -0.9347 H   0  0  0  0  0  0  0  0  0  0  0  0
   -4.0160   -4.4732    1.2679 H   0  0  0  0  0  0  0  0  0  0  0  0
   -3.0700   -5.1777   -0.0884 H   0  0  0  0  0  0  0  0  0  0  0  0
   -0.9721   -4.2474    0.7921 H   0  0  0  0  0  0  0  0  0  0  0  0
   -1.7972   -5.1660    2.0871 H   0  0  0  0  0  0  0  0  0  0  0  0
   -2.6484   -3.1277    3.1342 H   0  0  0  0  0  0  0  0  0  0  0  0
   -0.8780   -2.9587    2.9070 H   0  0  0  0  0  0  0  0  0  0  0  0
    4.3198   -1.7941    0.5038 H   0  0  0  0  0  0  0  0  0  0  0  0
    3.7941   -2.6925   -0.9977 H   0  0  0  0  0  0  0  0  0  0  0  0
    6.5327   -2.1675   -0.1199 H   0  0  0  0  0  0  0  0  0  0  0  0
    6.0278   -2.8264   -1.7428 H   0  0  0  0  0  0  0  0  0  0  0  0
  1  2  2  0
  2  3  1  0
  3  4  1  0
  4  5  1  0
  5  6  2  0
  6  7  1  0
  7  8  1  0
  8  9  1  0
  9 10  1  0
 10 11  1  0
 11 12  1  0
  5 13  1  0
 13 14  1  0
 14 15  1  0
 15 16  1  0
 16 17  1  0
 17 18  1  0
 18 19  1  0
  2 20  1  0
 20 21  1  0
 21 22  1  0
 22 23  1  0
 23 24  2  0
 24 25  1  0
 25  1  1  0
 12  7  1  0
 19 14  1  0
 24 20  1  0
  1 26  1  0
  3 27  1  0
  3 28  1  0
  7 29  1  0
  8 30  1  0
  8 31  1  0
  9 32  1  0
  9 33  1  0
 10 34  1  0
 10 35  1  0
 11 36  1  0
 11 37  1  0
 12 38  1  0
 12 39  1  0
 13 40  1  0
 14 41  1  0
 15 42  1  0
 15 43  1  0
 16 44  1  0
 16 45  1  0
 17 46  1  0
 17 47  1  0
 18 48  1  0
 18 49  1  0
 19 50  1  0
 19 51  1  0
 21 52  1  0
 21 53  1  0
 22 54  1  0
 22 55  1  0
M  END
>  <IX_DELTA_E>  (95)
0.000

>  <IX_CONF_ID>  (95)
1

>  <IX_Q>  (95)
-0.0490
-0.0382
0.2082
-0.3710
0.6410
-0.6960
0.1660
-0.1600
-0.1600
-0.1600
-0.1600
-0.1600
-0.8191
0.2891
-0.1600
-0.1600
-0.1600
-0.1600
-0.1600
-0.5191
0.2091
0.0860
-0.6960
0.6410
-0.2420
0.1500
0.0800
0.0800
0.0800
0.0800
0.0800
0.0800
0.0800
0.0800
0.0800
0.0800
0.0800
0.0800
0.0800
0.4000
0.0800
0.0800
0.0800
0.0800
0.0800
0.0800
0.0800
0.0800
0.0800
0.0800
0.0800
0.0800
0.0800
0.0800
0.0800

>  <IX_ALOGP>  (95)
0.15510
0.15510
-0.20350
0.64820
-0.27830
0.18360
-0.20510
0.14410
0.14410
0.14410
0.14410
0.14410
-0.70960
-0.20510
0.14410
0.14410
0.14410
0.14410
0.14410
-0.31870
-0.20350
-0.20350
0.18360
-0.27830
0.64820
0.12300
0.12300
0.12300
0.12300
0.12300
0.12300
0.12300
0.12300
0.12300
0.12300
0.12300
0.12300
0.12300
0.12300
0.21420
0.12300
0.12300
0.12300
0.12300
0.12300
0.12300
0.12300
0.12300
0.12300
0.12300
0.12300
0.12300
0.12300
0.12300
0.12300

$$$$
621181
     RDKit          3D

 55 58  0  0  0  0  0  0  0  0999 V2000
   -2.1631    5.2700   -0.9273 N   0  0  0  0  0  0  0  0  0  0  0  0
   -3.1765    4.3721   -0.3640 C   0  0  0  0  0  0  0  0  0  0  0  0
   -2.9115    2.8977   -0.7164 C   0  0  0  0  0  0  0  0  0  0  0  0
   -1.5712    2.3883   -0.1569 C   0  0  0  0  0  0  0  0  0  0  0  0
   -1.5369    0.8453   -0.0923 C   0  0  0  0  0  0  0  0  0  0  0  0
   -0.1515    0.2924   -0.0765 N   0  0  0  0  0  0  0  0  0  0  0  0
    0.5322    0.6021    1.2084 C   0  0  0  0  0  0  0  0  0  0  0  0
    1.9963    0.2577    1.1819 C   0  0  0  0  0  0  0  0  0  0  0  0
    2.5582   -0.6243    2.0486 N   0  0  0  0  0  0  0  0  0  0  0  0
    3.8486   -0.6285    1.6729 C   0  0  0  0  0  0  0  0  0  0  0  0
    4.8953   -1.3587    2.2288 C   0  0  0  0  0  0  0  0  0  0  0  0
    6.1762   -1.1975    1.6668 C   0  0  0  0  0  0  0  0  0  0  0  0
    6.3734   -0.3221    0.5752 C   0  0  0  0  0  0  0  0  0  0  0  0
    5.2921    0.4025    0.0389 C   0  0  0  0  0  0  0  0  0  0  0  0
    4.0414    0.2199    0.6261 C   0  0  0  0  0  0  0  0  0  0  0  0
    2.8779    0.7976    0.3063 N   0  0  0  0  0  0  0  0  0  0  0  0
   -0.1186   -1.1740   -0.4190 C   0  0  0  0  0  0  0  0  0  0  0  0
   -0.1119   -1.3648   -1.9586 C   0  0  0  0  0  0  0  0  0  0  0  0
   -0.3982   -2.8077   -2.3611 C   0  0  0  0  0  0  0  0  0  0  0  0
   -1.7984   -3.2084   -1.9014 C   0  0  0  0  0  0  0  0  0  0  0  0
   -2.0044   -2.9340   -0.4340 C   0  0  0  0  0  0  0  0  0  0  0  0
   -2.9929   -3.6460    0.2613 C   0  0  0  0  0  0  0  0  0  0  0  0
   -3.1489   -3.4671    1.6345 C   0  0  0  0  0  0  0  0  0  0  0  0
   -2.3099   -2.5772    2.3045 C   0  0  0  0  0  0  0  0  0  0  0  0
   -1.3714   -1.8782    1.6178 N   0  0  0  0  0  0  0  0  0  0  0  0
   -1.2092   -1.9971    0.2719 C   0  0  0  0  0  0  0  0  0  0  0  0
   -2.0897    5.1319   -1.9655 H   0  0  0  0  0  0  0  0  0  0  0  0
   -1.2334    5.0998   -0.4747 H   0  0  0  0  0  0  0  0  0  0  0  0
   -2.4520    6.2585   -0.7367 H   0  0  0  0  0  0  0  0  0  0  0  0
   -3.2067    4.4850    0.7427 H   0  0  0  0  0  0  0  0  0  0  0  0
   -4.1798    4.6553   -0.7577 H   0  0  0  0  0  0  0  0  0  0  0  0
   -3.7484    2.2922   -0.2998 H   0  0  0  0  0  0  0  0  0  0  0  0
   -2.9236    2.7724   -1.8235 H   0  0  0  0  0  0  0  0  0  0  0  0
   -0.7478    2.7687   -0.8016 H   0  0  0  0  0  0  0  0  0  0  0  0
   -1.4264    2.7913    0.8692 H   0  0  0  0  0  0  0  0  0  0  0  0
   -2.0922    0.5293    0.8190 H   0  0  0  0  0  0  0  0  0  0  0  0
   -2.0959    0.4456   -0.9631 H   0  0  0  0  0  0  0  0  0  0  0  0
    0.3856    0.7988   -0.8207 H   0  0  0  0  0  0  0  0  0  0  0  0
    0.0468    0.0823    2.0575 H   0  0  0  0  0  0  0  0  0  0  0  0
    0.4741    1.6870    1.4299 H   0  0  0  0  0  0  0  0  0  0  0  0
    4.7295   -2.0262    3.0639 H   0  0  0  0  0  0  0  0  0  0  0  0
    7.0121   -1.7522    2.0686 H   0  0  0  0  0  0  0  0  0  0  0  0
    7.3615   -0.2078    0.1484 H   0  0  0  0  0  0  0  0  0  0  0  0
    5.4288    1.0794   -0.7930 H   0  0  0  0  0  0  0  0  0  0  0  0
    2.6966    1.4982   -0.4459 H   0  0  0  0  0  0  0  0  0  0  0  0
    0.8378   -1.6205   -0.0753 H   0  0  0  0  0  0  0  0  0  0  0  0
   -0.8588   -0.7093   -2.4474 H   0  0  0  0  0  0  0  0  0  0  0  0
    0.8797   -1.0714   -2.3578 H   0  0  0  0  0  0  0  0  0  0  0  0
    0.3541   -3.4815   -1.8983 H   0  0  0  0  0  0  0  0  0  0  0  0
   -0.3260   -2.9093   -3.4671 H   0  0  0  0  0  0  0  0  0  0  0  0
   -2.5644   -2.6585   -2.4871 H   0  0  0  0  0  0  0  0  0  0  0  0
   -1.9303   -4.2942   -2.1060 H   0  0  0  0  0  0  0  0  0  0  0  0
   -3.6296   -4.3527   -0.2597 H   0  0  0  0  0  0  0  0  0  0  0  0
   -3.9115   -4.0139    2.1733 H   0  0  0  0  0  0  0  0  0  0  0  0
   -2.4071   -2.4381    3.3717 H   0  0  0  0  0  0  0  0  0  0  0  0
  1  2  1  0
  2  3  1  0
  3  4  1  0
  4  5  1  0
  5  6  1  0
  6  7  1  0
  7  8  1  0
  8  9  2  0
  9 10  1  0
 10 11  2  0
 11 12  1  0
 12 13  2  0
 13 14  1  0
 14 15  2  0
 15 16  1  0
  6 17  1  0
 17 18  1  0
 18 19  1  0
 19 20  1  0
 20 21  1  0
 21 22  2  0
 22 23  1  0
 23 24  2  0
 24 25  1  0
 25 26  2  0
 16  8  1  0
 26 17  1  0
 15 10  1  0
 26 21  1  0
  1 27  1  0
  1 28  1  0
  1 29  1  0
  2 30  1  0
  2 31  1  0
  3 32  1  0
  3 33  1  0
  4 34  1  0
  4 35  1  0
  5 36  1  0
  5 37  1  0
  6 38  1  0
  7 39  1  0
  7 40  1  0
 11 41  1  0
 12 42  1  0
 13 43  1  0
 14 44  1  0
 16 45  1  0
 17 46  1  0
 18 47  1  0
 18 48  1  0
 19 49  1  0
 19 50  1  0
 20 51  1  0
 20 52  1  0
 22 53  1  0
 23 54  1  0
 24 55  1  0
M  CHG  2   1   1   6   1
M  END
>  <IX_DELTA_E>  (104)
0.000

>  <IX_CONF_ID>  (104)
1

>  <IX_Q>  (104)
-0.8530
0.3430
-0.1600
-0.1600
0.3430
-0.9590
0.5230
0.0065
-0.5653
0.2272
-0.1500
-0.1500
-0.1500
-0.1500
-0.1516
0.0332
0.5665
-0.1600
-0.1600
-0.0165
-0.1435
-0.1500
-0.1500
0.1600
-0.6200
0.1665
0.4500
0.4500
0.4500
0.0800
0.0800
0.0800
0.0800
0.0800
0.0800
0.0800
0.0800
0.4500
0.0800
0.0800
0.1500
0.1500
0.1500
0.1500
0.2700
0.0800
0.0800
0.0800
0.0800
0.0800
0.0800
0.0800
0.1500
0.1500
0.1500

>  <IX_ALOGP>  (104)
-1.95000
-0.20350
0.14410
0.14410
-0.20350
-1.95000
-0.05160
0.13600
-0.32390
0.29550
0.15810
0.15810
0.15810
0.15810
0.29550
-0.32390
0.11930
0.14410
0.14410
-0.05160
0.13600
0.15810
0.15810
0.15810
-0.32390
0.13600
0.21420
0.21420
0.21420
0.12300
0.12300
0.12300
0.12300
0.12300
0.12300
0.12300
0.12300
0.21420
0.12300
0.12300
0.12300
0.12300
0.12300
0.12300
0.21420
0.12300
0.12300
0.12300
0.12300
0.12300
0.12300
0.12300
0.12300
0.12300
0.12300

$$$$
454389
     RDKit          3D

 63 68  0  0  0  0  0  0  0  0999 V2000
   -4.3977   -1.3808   -2.2662 C   0  0  0  0  0  0  0  0  0  0  0  0
   -3.6256   -1.8036   -1.2624 C   0  0  0  0  0  0  0  0  0  0  0  0
   -2.3114   -1.1760   -0.9038 C   0  0  0  0  0  0  0  0  0  0  0  0
   -2.5393   -0.0646    0.5261 S   0  0  0  0  0  0  0  0  0  0  0  0
   -0.8344    0.5152    0.4726 C   0  0  0  0  0  0  0  0  0  0  0  0
   -0.5168    1.6516   -0.0745 N   0  0  0  0  0  0  0  0  0  0  0  0
   -1.4397    2.6342   -0.6466 C   0  0  0  0  0  0  0  0  0  0  0  0
   -2.0521    3.5049    0.4686 C   0  0  0  0  0  0  0  0  0  0  0  0
   -0.9796    4.3596    1.1628 C   0  0  0  0  0  0  0  0  0  0  0  0
   -0.2203    5.2276    0.1502 C   0  0  0  0  0  0  0  0  0  0  0  0
    0.3938    4.3650   -0.9587 C   0  0  0  0  0  0  0  0  0  0  0  0
   -0.6780    3.5118   -1.6534 C   0  0  0  0  0  0  0  0  0  0  0  0
    0.1880   -0.3072    1.0503 N   0  0  0  0  0  0  0  0  0  0  0  0
    1.6011    0.1014    1.0881 C   0  0  0  0  0  0  0  0  0  0  0  0
    2.2457    0.0886   -0.3296 C   0  0  0  0  0  0  0  0  0  0  0  0
    3.6774    0.6639   -0.2299 C   0  0  0  0  0  0  0  0  0  0  0  0
    4.5229   -0.2092    0.7243 C   0  0  0  0  0  0  0  0  0  0  0  0
    4.5926   -1.6441    0.1601 C   0  0  0  0  0  0  0  0  0  0  0  0
    3.1663   -2.2325    0.0615 C   0  0  0  0  0  0  0  0  0  0  0  0
    2.3092   -1.3575   -0.8772 C   0  0  0  0  0  0  0  0  0  0  0  0
    2.5210   -2.2588    1.4618 C   0  0  0  0  0  0  0  0  0  0  0  0
    2.4373   -0.8150    2.0249 C   0  0  0  0  0  0  0  0  0  0  0  0
    3.8677   -0.2350    2.1270 C   0  0  0  0  0  0  0  0  0  0  0  0
   -4.1940   -2.8731   -0.5185 N   0  0  0  0  0  0  0  0  0  0  0  0
   -3.5301   -4.0276    0.0542 C   0  0  0  0  0  0  0  0  0  0  0  0
   -4.5368   -5.1668   -0.1971 C   0  0  0  0  0  0  0  0  0  0  0  0
   -5.5616   -4.5864   -1.0603 N   0  0  0  0  0  0  0  0  0  0  0  0
   -5.3602   -3.3185   -1.1421 C   0  0  0  0  0  0  0  0  0  0  0  0
   -5.9611   -2.2768   -2.4543 S   0  0  0  0  0  0  0  0  0  0  0  0
   -4.1197   -0.5541   -2.9114 H   0  0  0  0  0  0  0  0  0  0  0  0
   -1.5816   -1.9700   -0.6340 H   0  0  0  0  0  0  0  0  0  0  0  0
   -1.9009   -0.6060   -1.7703 H   0  0  0  0  0  0  0  0  0  0  0  0
   -2.2540    2.1198   -1.2028 H   0  0  0  0  0  0  0  0  0  0  0  0
   -2.8319    4.1715    0.0327 H   0  0  0  0  0  0  0  0  0  0  0  0
   -2.5511    2.8583    1.2254 H   0  0  0  0  0  0  0  0  0  0  0  0
   -1.4654    5.0172    1.9144 H   0  0  0  0  0  0  0  0  0  0  0  0
   -0.2623    3.6964    1.6985 H   0  0  0  0  0  0  0  0  0  0  0  0
    0.5918    5.7786    0.6770 H   0  0  0  0  0  0  0  0  0  0  0  0
   -0.9134    5.9775   -0.2966 H   0  0  0  0  0  0  0  0  0  0  0  0
    1.1763    3.7019   -0.5244 H   0  0  0  0  0  0  0  0  0  0  0  0
    0.8781    5.0277   -1.7081 H   0  0  0  0  0  0  0  0  0  0  0  0
   -1.3961    4.1779   -2.1806 H   0  0  0  0  0  0  0  0  0  0  0  0
   -0.1943    2.8654   -2.4174 H   0  0  0  0  0  0  0  0  0  0  0  0
   -0.1204   -1.1715    1.5522 H   0  0  0  0  0  0  0  0  0  0  0  0
    1.6411    1.1410    1.4952 H   0  0  0  0  0  0  0  0  0  0  0  0
    1.6637    0.7186   -1.0318 H   0  0  0  0  0  0  0  0  0  0  0  0
    4.1489    0.6903   -1.2395 H   0  0  0  0  0  0  0  0  0  0  0  0
    3.6416    1.7115    0.1467 H   0  0  0  0  0  0  0  0  0  0  0  0
    5.5492    0.2132    0.8009 H   0  0  0  0  0  0  0  0  0  0  0  0
    5.0668   -1.6318   -0.8462 H   0  0  0  0  0  0  0  0  0  0  0  0
    5.2237   -2.2809    0.8166 H   0  0  0  0  0  0  0  0  0  0  0  0
    3.2218   -3.2651   -0.3431 H   0  0  0  0  0  0  0  0  0  0  0  0
    2.7484   -1.3564   -1.8999 H   0  0  0  0  0  0  0  0  0  0  0  0
    1.2832   -1.7796   -0.9628 H   0  0  0  0  0  0  0  0  0  0  0  0
    3.1266   -2.8981    2.1423 H   0  0  0  0  0  0  0  0  0  0  0  0
    1.5130   -2.7186    1.4014 H   0  0  0  0  0  0  0  0  0  0  0  0
    1.9797   -0.8371    3.0384 H   0  0  0  0  0  0  0  0  0  0  0  0
    3.8317    0.7955    2.5488 H   0  0  0  0  0  0  0  0  0  0  0  0
    4.4822   -0.8507    2.8210 H   0  0  0  0  0  0  0  0  0  0  0  0
   -3.3451   -3.8696    1.1364 H   0  0  0  0  0  0  0  0  0  0  0  0
   -2.5757   -4.2318   -0.4757 H   0  0  0  0  0  0  0  0  0  0  0  0
   -4.9951   -5.5133    0.7508 H   0  0  0  0  0  0  0  0  0  0  0  0
   -4.0453   -6.0183   -0.7120 H   0  0  0  0  0  0  0  0  0  0  0  0
  1  2  2  0
  2  3  1  0
  3  4  1  0
  4  5  1  0
  5  6  2  0
  6  7  1  0
  7  8  1  0
  8  9  1  0
  9 10  1  0
 10 11  1  0
 11 12  1  0
  5 13  1  0
 13 14  1  0
 14 15  1  0
 15 16  1  0
 16 17  1  0
 17 18  1  0
 18 19  1  0
 19 20  1  0
 19 21  1  0
 21 22  1  0
 22 23  1  0
  2 24  1  0
 24 25  1  0
 25 26  1  0
 26 27  1  0
 27 28  2  0
 28 29  1  0
 29  1  1  0
 12  7  1  0
 22 14  1  0
 28 24  1  0
 20 15  1  0
 23 17  1  0
  1 30  1  0
  3 31  1  0
  3 32  1  0
  7 33  1  0
  8 34  1  0
  8 35  1  0
  9 36  1  0
  9 37  1  0
 10 38  1  0
 10 39  1  0
 11 40  1  0
 11 41  1  0
 12 42  1  0
 12 43  1  0
 13 44  1  0
 14 45  1  0
 15 46  1  0
 16 47  1  0
 16 48  1  0
 17 49  1  0
 18 50  1  0
 18 51  1  0
 19 52  1  0
 20 53  1  0
 20 54  1  0
 21 55  1  0
 21 56  1  0
 22 57  1  0
 23 58  1  0
 23 59  1  0
 25 60  1  0
 25 61  1  0
 26 62  1  0
 26 63  1  0
M  END
>  <IX_DELTA_E>  (114)
0.000

>  <IX_CONF_ID>  (114)
1

>  <IX_Q>  (114)
-0.0490
-0.0382
0.2082
-0.3710
0.6410
-0.6960
0.1660
-0.1600
-0.1600
-0.1600
-0.1600
-0.1600
-0.8191
0.2891
-0.0800
-0.1600
-0.0800
-0.1600
-0.0800
-0.1600
-0.1600
-0.0800
-0.1600
-0.5191
0.2091
0.0860
-0.6960
0.6410
-0.2420
0.1500
0.0800
0.0800
0.0800
0.0800
0.0800
0.0800
0.0800
0.0800
0.0800
0.0800
0.0800
0.0800
0.0800
0.4000
0.0800
0.0800
0.0800
0.0800
0.0800
0.0800
0.0800
0.0800
0.0800
0.0800
0.0800
0.0800
0.0800
0.0800
0.0800
0.0800
0.0800
0.0800
0.0800

>  <IX_ALOGP>  (114)
0.15510
0.15510
-0.20350
0.64820
-0.27830
0.18360
-0.20510
0.14410
0.14410
0.14410
0.14410
0.14410
-0.70960
-0.20510
0.00000
0.14410
0.00000
0.14410
0.00000
0.14410
0.14410
0.00000
0.14410
-0.31870
-0.20350
-0.20350
0.18360
-0.27830
0.64820
0.12300
0.12300
0.12300
0.12300
0.12300
0.12300
0.12300
0.12300
0.12300
0.12300
0.12300
0.12300
0.12300
0.12300
0.21420
0.12300
0.12300
0.12300
0.12300
0.12300
0.12300
0.12300
0.12300
0.12300
0.12300
0.12300
0.12300
0.12300
0.12300
0.12300
0.12300
0.12300
0.12300
0.12300

$$$$
628650
     RDKit          3D

 64 67  0  0  0  0  0  0  0  0999 V2000
    4.7759    3.4246    0.7887 C   0  0  0  0  0  0  0  0  0  0  0  0
    5.5508    2.1852    0.5867 N   0  0  0  0  0  0  0  0  0  0  0  0
    6.7112    2.1800    1.4943 C   0  0  0  0  0  0  0  0  0  0  0  0
    4.7208    0.9801    0.8293 C   0  0  0  0  0  0  0  0  0  0  0  0
    3.7201    0.7050   -0.2665 C   0  0  0  0  0  0  0  0  0  0  0  0
    3.7119    1.3932   -1.3232 O   0  0  0  0  0  0  0  0  0  0  0  0
    2.7821   -0.3653   -0.1061 N   0  0  0  0  0  0  0  0  0  0  0  0
    1.6303   -0.5070   -0.9953 C   0  0  0  0  0  0  0  0  0  0  0  0
    0.7779   -1.6967   -0.5868 C   0  0  0  0  0  0  0  0  0  0  0  0
   -0.2952   -1.5371    0.3324 C   0  0  0  0  0  0  0  0  0  0  0  0
   -0.5471   -0.2471    1.0852 C   0  0  0  0  0  0  0  0  0  0  0  0
   -1.4970    0.6561    0.3867 N   0  0  2  0  0  0  0  0  0  0  0  0
   -1.4088    2.0096    0.9786 C   0  0  0  0  0  0  0  0  0  0  0  0
   -2.9011    0.1335    0.3430 C   0  0  1  0  0  0  0  0  0  0  0  0
   -3.5184   -0.0698    1.7582 C   0  0  0  0  0  0  0  0  0  0  0  0
   -5.0418   -0.1515    1.7143 C   0  0  0  0  0  0  0  0  0  0  0  0
   -5.6202    1.1493    1.1622 C   0  0  0  0  0  0  0  0  0  0  0  0
   -5.0361    1.4761   -0.1834 C   0  0  0  0  0  0  0  0  0  0  0  0
   -5.7626    2.2779   -1.0752 C   0  0  0  0  0  0  0  0  0  0  0  0
   -5.2550    2.5536   -2.3443 C   0  0  0  0  0  0  0  0  0  0  0  0
   -4.0245    2.0160   -2.7171 C   0  0  0  0  0  0  0  0  0  0  0  0
   -3.3203    1.2556   -1.8377 N   0  0  0  0  0  0  0  0  0  0  0  0
   -3.7710    0.9851   -0.5788 C   0  0  0  0  0  0  0  0  0  0  0  0
   -1.1031   -2.5934    0.6149 N   0  0  0  0  0  0  0  0  0  0  0  0
   -0.9263   -3.8183    0.0691 C   0  0  0  0  0  0  0  0  0  0  0  0
    0.1567   -4.0607   -0.7748 C   0  0  0  0  0  0  0  0  0  0  0  0
    0.3803   -5.3504   -1.2807 C   0  0  0  0  0  0  0  0  0  0  0  0
    1.4954   -5.6084   -2.0758 C   0  0  0  0  0  0  0  0  0  0  0  0
    2.3968   -4.5865   -2.3671 C   0  0  0  0  0  0  0  0  0  0  0  0
    2.1801   -3.2937   -1.8813 C   0  0  0  0  0  0  0  0  0  0  0  0
    1.0435   -2.9996   -1.0918 C   0  0  0  0  0  0  0  0  0  0  0  0
    5.4046    4.3137    0.5693 H   0  0  0  0  0  0  0  0  0  0  0  0
    4.4021    3.4994    1.8324 H   0  0  0  0  0  0  0  0  0  0  0  0
    3.9043    3.4647    0.1012 H   0  0  0  0  0  0  0  0  0  0  0  0
    5.9204    2.1687   -0.3940 H   0  0  0  0  0  0  0  0  0  0  0  0
    7.3377    3.0853    1.3389 H   0  0  0  0  0  0  0  0  0  0  0  0
    6.3865    2.1499    2.5572 H   0  0  0  0  0  0  0  0  0  0  0  0
    7.3552    1.2938    1.2948 H   0  0  0  0  0  0  0  0  0  0  0  0
    5.3668    0.0751    0.9064 H   0  0  0  0  0  0  0  0  0  0  0  0
    4.1710    1.0762    1.7945 H   0  0  0  0  0  0  0  0  0  0  0  0
    2.8912   -1.0057    0.7144 H   0  0  0  0  0  0  0  0  0  0  0  0
    1.9676   -0.6019   -2.0474 H   0  0  0  0  0  0  0  0  0  0  0  0
    1.0430    0.4304   -0.9756 H   0  0  0  0  0  0  0  0  0  0  0  0
   -0.9087   -0.4869    2.1074 H   0  0  0  0  0  0  0  0  0  0  0  0
    0.4229    0.2675    1.2532 H   0  0  0  0  0  0  0  0  0  0  0  0
   -1.1673    0.7433   -0.6021 H   0  0  0  0  0  0  0  0  0  0  0  0
   -2.2604    2.6568    0.6792 H   0  0  0  0  0  0  0  0  0  0  0  0
   -1.3736    1.9693    2.0913 H   0  0  0  0  0  0  0  0  0  0  0  0
   -0.4748    2.5142    0.6349 H   0  0  0  0  0  0  0  0  0  0  0  0
   -2.8931   -0.8657   -0.1430 H   0  0  0  0  0  0  0  0  0  0  0  0
   -3.2403    0.7505    2.4479 H   0  0  0  0  0  0  0  0  0  0  0  0
   -3.1389   -1.0178    2.1918 H   0  0  0  0  0  0  0  0  0  0  0  0
   -5.3567   -1.0094    1.0767 H   0  0  0  0  0  0  0  0  0  0  0  0
   -5.4356   -0.3215    2.7376 H   0  0  0  0  0  0  0  0  0  0  0  0
   -6.7223    1.0361    1.0813 H   0  0  0  0  0  0  0  0  0  0  0  0
   -5.4072    1.9884    1.8650 H   0  0  0  0  0  0  0  0  0  0  0  0
   -6.7279    2.6780   -0.7945 H   0  0  0  0  0  0  0  0  0  0  0  0
   -5.8149    3.1667   -3.0392 H   0  0  0  0  0  0  0  0  0  0  0  0
   -3.6231    2.2099   -3.7037 H   0  0  0  0  0  0  0  0  0  0  0  0
   -1.6123   -4.6126    0.3305 H   0  0  0  0  0  0  0  0  0  0  0  0
   -0.2998   -6.1603   -1.0482 H   0  0  0  0  0  0  0  0  0  0  0  0
    1.6738   -6.6066   -2.4521 H   0  0  0  0  0  0  0  0  0  0  0  0
    3.2762   -4.7975   -2.9596 H   0  0  0  0  0  0  0  0  0  0  0  0
    2.9282   -2.5476   -2.1043 H   0  0  0  0  0  0  0  0  0  0  0  0
  1  2  1  0
  2  3  1  0
  2  4  1  0
  4  5  1  0
  5  6  2  0
  5  7  1  0
  7  8  1  0
  8  9  1  0
  9 10  2  0
 10 11  1  0
 11 12  1  0
 12 13  1  0
 12 14  1  0
 14 15  1  0
 15 16  1  0
 16 17  1  0
 17 18  1  0
 18 19  2  0
 19 20  1  0
 20 21  2  0
 21 22  1  0
 22 23  2  0
 10 24  1  0
 24 25  2  0
 25 26  1  0
 26 27  2  0
 27 28  1  0
 28 29  2  0
 29 30  1  0
 30 31  2  0
 31  9  1  0
 23 14  1  0
 31 26  1  0
 23 18  1  0
  1 32  1  0
  1 33  1  0
  1 34  1  0
  2 35  1  0
  3 36  1  0
  3 37  1  0
  3 38  1  0
  4 39  1  0
  4 40  1  0
  7 41  1  0
  8 42  1  0
  8 43  1  0
 11 44  1  0
 11 45  1  0
 12 46  1  6
 13 47  1  0
 13 48  1  0
 13 49  1  0
 14 50  1  6
 15 51  1  0
 15 52  1  0
 16 53  1  0
 16 54  1  0
 17 55  1  0
 17 56  1  0
 19 57  1  0
 20 58  1  0
 21 59  1  0
 25 60  1  0
 27 61  1  0
 28 62  1  0
 29 63  1  0
 30 64  1  0
M  CHG  2   2   1  12   1
M  END
>  <IX_DELTA_E>  (118)
0.000

>  <IX_CONF_ID>  (118)
1

>  <IX_Q>  (118)
0.2630
-0.9590
0.2630
0.4040
0.5690
-0.5700
-0.7301
0.2836
-0.1435
0.1665
0.4865
-0.9590
0.2630
0.5665
-0.1600
-0.1600
-0.0165
-0.1435
-0.1500
-0.1500
0.1600
-0.6200
0.1665
-0.6200
0.1600
0.0000
-0.1500
-0.1500
-0.1500
-0.1500
0.0000
0.0800
0.0800
0.0800
0.4500
0.0800
0.0800
0.0800
0.0800
0.0800
0.3700
0.0800
0.0800
0.0800
0.0800
0.4500
0.0800
0.0800
0.0800
0.0800
0.0800
0.0800
0.0800
0.0800
0.0800
0.0800
0.1500
0.1500
0.1500
0.1500
0.1500
0.1500
0.1500
0.1500

>  <IX_ALOGP>  (118)
-0.20350
-1.95000
-0.20350
-0.20350
-0.27830
-0.15260
-0.70960
-0.05160
0.13600
0.13600
-0.05160
-1.95000
-0.20350
0.11930
0.14410
0.14410
-0.05160
0.13600
0.15810
0.15810
0.15810
-0.32390
0.13600
-0.32390
0.15810
0.29550
0.15810
0.15810
0.15810
0.15810
0.29550
0.12300
0.12300
0.12300
0.21420
0.12300
0.12300
0.12300
0.12300
0.12300
0.21420
0.12300
0.12300
0.12300
0.12300
0.21420
0.12300
0.12300
0.12300
0.12300
0.12300
0.12300
0.12300
0.12300
0.12300
0.12300
0.12300
0.12300
0.12300
0.12300
0.12300
0.12300
0.12300
0.12300

$$$$
576184
     RDKit          3D

 55 58  0  0  0  0  0  0  0  0999 V2000
   -1.8339   -1.4983   -1.0107 C   0  0  0  0  0  0  0  0  0  0  0  0
   -1.1042   -0.3306   -0.4648 N   0  0  0  0  0  0  0  0  0  0  0  0
    0.1239   -0.0610   -1.2569 C   0  0  0  0  0  0  0  0  0  0  0  0
    1.1962   -1.0860   -0.9919 C   0  0  0  0  0  0  0  0  0  0  0  0
    1.4517   -2.1083   -1.8517 N   0  0  0  0  0  0  0  0  0  0  0  0
    2.4793   -2.7473   -1.2627 C   0  0  0  0  0  0  0  0  0  0  0  0
    3.1586   -3.8694   -1.7283 C   0  0  0  0  0  0  0  0  0  0  0  0
    4.2357   -4.3515   -0.9611 C   0  0  0  0  0  0  0  0  0  0  0  0
    4.6035   -3.7038    0.2404 C   0  0  0  0  0  0  0  0  0  0  0  0
    3.8970   -2.5733    0.6849 C   0  0  0  0  0  0  0  0  0  0  0  0
    2.8294   -2.1272   -0.0990 C   0  0  0  0  0  0  0  0  0  0  0  0
    2.0160   -1.0752    0.0964 N   0  0  0  0  0  0  0  0  0  0  0  0
    2.1055   -0.0638    1.1540 C   0  0  0  0  0  0  0  0  0  0  0  0
    3.1715    0.9766    0.8025 C   0  0  0  0  0  0  0  0  0  0  0  0
    3.2772    2.0464    1.8974 C   0  0  0  0  0  0  0  0  0  0  0  0
    4.3075    3.0322    1.5700 N   0  0  0  0  0  0  0  0  0  0  0  0
   -1.9536    0.8958   -0.3395 C   0  0  0  0  0  0  0  0  0  0  0  0
   -2.3861    1.4804   -1.7156 C   0  0  0  0  0  0  0  0  0  0  0  0
   -3.5126    2.4982   -1.5634 C   0  0  0  0  0  0  0  0  0  0  0  0
   -4.7520    1.8195   -0.9800 C   0  0  0  0  0  0  0  0  0  0  0  0
   -4.4347    1.1194    0.3128 C   0  0  0  0  0  0  0  0  0  0  0  0
   -5.4573    0.8925    1.2427 C   0  0  0  0  0  0  0  0  0  0  0  0
   -5.1718    0.2821    2.4623 C   0  0  0  0  0  0  0  0  0  0  0  0
   -3.8638   -0.1057    2.7432 C   0  0  0  0  0  0  0  0  0  0  0  0
   -2.8825    0.1039    1.8258 N   0  0  0  0  0  0  0  0  0  0  0  0
   -3.1247    0.6803    0.6154 C   0  0  0  0  0  0  0  0  0  0  0  0
   -2.7773   -1.6840   -0.4537 H   0  0  0  0  0  0  0  0  0  0  0  0
   -1.2142   -2.4229   -0.9061 H   0  0  0  0  0  0  0  0  0  0  0  0
   -2.0682   -1.3785   -2.0928 H   0  0  0  0  0  0  0  0  0  0  0  0
   -0.8041   -0.5952    0.5025 H   0  0  0  0  0  0  0  0  0  0  0  0
    0.5438    0.9423   -1.0209 H   0  0  0  0  0  0  0  0  0  0  0  0
   -0.1075   -0.0534   -2.3466 H   0  0  0  0  0  0  0  0  0  0  0  0
    2.8746   -4.3522   -2.6518 H   0  0  0  0  0  0  0  0  0  0  0  0
    4.7901   -5.2180   -1.2989 H   0  0  0  0  0  0  0  0  0  0  0  0
    5.4384   -4.0783    0.8182 H   0  0  0  0  0  0  0  0  0  0  0  0
    4.1801   -2.0706    1.6011 H   0  0  0  0  0  0  0  0  0  0  0  0
    1.1251    0.4370    1.2955 H   0  0  0  0  0  0  0  0  0  0  0  0
    2.3590   -0.5534    2.1172 H   0  0  0  0  0  0  0  0  0  0  0  0
    2.9099    1.4586   -0.1646 H   0  0  0  0  0  0  0  0  0  0  0  0
    4.1547    0.4698    0.6878 H   0  0  0  0  0  0  0  0  0  0  0  0
    2.2990    2.5639    2.0098 H   0  0  0  0  0  0  0  0  0  0  0  0
    3.5255    1.5605    2.8696 H   0  0  0  0  0  0  0  0  0  0  0  0
    4.3598    3.7376    2.3426 H   0  0  0  0  0  0  0  0  0  0  0  0
    4.0733    3.5179    0.6721 H   0  0  0  0  0  0  0  0  0  0  0  0
    5.2379    2.5619    1.4827 H   0  0  0  0  0  0  0  0  0  0  0  0
   -1.3377    1.6871    0.1487 H   0  0  0  0  0  0  0  0  0  0  0  0
   -1.5188    1.9882   -2.1949 H   0  0  0  0  0  0  0  0  0  0  0  0
   -2.7350    0.6859   -2.4085 H   0  0  0  0  0  0  0  0  0  0  0  0
   -3.7598    2.9227   -2.5598 H   0  0  0  0  0  0  0  0  0  0  0  0
   -3.1844    3.3322   -0.9002 H   0  0  0  0  0  0  0  0  0  0  0  0
   -5.1530    1.0748   -1.7024 H   0  0  0  0  0  0  0  0  0  0  0  0
   -5.5294    2.5951   -0.8128 H   0  0  0  0  0  0  0  0  0  0  0  0
   -6.4722    1.2021    1.0281 H   0  0  0  0  0  0  0  0  0  0  0  0
   -5.9573    0.1149    3.1836 H   0  0  0  0  0  0  0  0  0  0  0  0
   -3.6279   -0.5717    3.6891 H   0  0  0  0  0  0  0  0  0  0  0  0
  1  2  1  0
  2  3  1  0
  3  4  1  0
  4  5  2  0
  5  6  1  0
  6  7  2  0
  7  8  1  0
  8  9  2  0
  9 10  1  0
 10 11  2  0
 11 12  1  0
 12 13  1  0
 13 14  1  0
 14 15  1  0
 15 16  1  0
  2 17  1  0
 17 18  1  0
 18 19  1  0
 19 20  1  0
 20 21  1  0
 21 22  2  0
 22 23  1  0
 23 24  2  0
 24 25  1  0
 25 26  2  0
 12  4  1  0
 26 17  1  0
 11  6  1  0
 26 21  1  0
  1 27  1  0
  1 28  1  0
  1 29  1  0
  2 30  1  0
  3 31  1  0
  3 32  1  0
  7 33  1  0
  8 34  1  0
  9 35  1  0
 10 36  1  0
 13 37  1  0
 13 38  1  0
 14 39  1  0
 14 40  1  0
 15 41  1  0
 15 42  1  0
 16 43  1  0
 16 44  1  0
 16 45  1  0
 17 46  1  0
 18 47  1  0
 18 48  1  0
 19 49  1  0
 19 50  1  0
 20 51  1  0
 20 52  1  0
 22 53  1  0
 23 54  1  0
 24 55  1  0
M  CHG  2   2   1  16   1
M  END
>  <IX_DELTA_E>  (131)
0.000

>  <IX_CONF_ID>  (131)
1

>  <IX_Q>  (131)
0.2630
-0.9590
0.5230
0.0065
-0.5653
0.2272
-0.1500
-0.1500
-0.1500
-0.1500
-0.1516
0.0476
0.0956
-0.1600
0.3430
-0.8530
0.5665
-0.1600
-0.1600
-0.0165
-0.1435
-0.1500
-0.1500
0.1600
-0.6200
0.1665
0.0800
0.0800
0.0800
0.4500
0.0800
0.0800
0.1500
0.1500
0.1500
0.1500
0.0800
0.0800
0.0800
0.0800
0.0800
0.0800
0.4500
0.4500
0.4500
0.0800
0.0800
0.0800
0.0800
0.0800
0.0800
0.0800
0.1500
0.1500
0.1500

>  <IX_ALOGP>  (131)
-0.20350
-1.95000
-0.05160
0.13600
-0.32390
0.29550
0.15810
0.15810
0.15810
0.15810
0.29550
-0.32390
-0.05160
0.14410
-0.20350
-1.95000
0.11930
0.14410
0.14410
-0.05160
0.13600
0.15810
0.15810
0.15810
-0.32390
0.13600
0.12300
0.12300
0.12300
0.21420
0.12300
0.12300
0.12300
0.12300
0.12300
0.12300
0.12300
0.12300
0.12300
0.12300
0.12300
0.12300
0.21420
0.21420
0.21420
0.12300
0.12300
0.12300
0.12300
0.12300
0.12300
0.12300
0.12300
0.12300
0.12300

$$$$
621103
     RDKit          3D

 59 63  0  0  0  0  0  0  0  0999 V2000
   -2.7725   -1.5595    2.3358 N   0  0  0  0  0  0  0  0  0  0  0  0
   -3.5543   -1.3557    1.1120 C   0  0  0  0  0  0  0  0  0  0  0  0
   -3.1862   -2.3712    0.0448 C   0  0  0  0  0  0  0  0  0  0  0  0
   -3.5057   -3.7172    0.2910 C   0  0  0  0  0  0  0  0  0  0  0  0
   -3.2169   -4.7047   -0.6482 C   0  0  0  0  0  0  0  0  0  0  0  0
   -2.6187   -4.3650   -1.8595 C   0  0  0  0  0  0  0  0  0  0  0  0
   -2.3045   -3.0363   -2.1319 C   0  0  0  0  0  0  0  0  0  0  0  0
   -2.5863   -2.0199   -1.1979 C   0  0  0  0  0  0  0  0  0  0  0  0
   -2.1985   -0.5907   -1.5522 C   0  0  0  0  0  0  0  0  0  0  0  0
   -0.9726   -0.1496   -0.8294 N   0  0  0  0  0  0  0  0  0  0  0  0
    0.2243   -0.8036   -1.4320 C   0  0  0  0  0  0  0  0  0  0  0  0
    1.5001   -0.5182   -0.6939 C   0  0  0  0  0  0  0  0  0  0  0  0
    2.5550    0.1195   -1.2691 N   0  0  0  0  0  0  0  0  0  0  0  0
    3.4736    0.1179   -0.2875 C   0  0  0  0  0  0  0  0  0  0  0  0
    4.7652    0.6378   -0.3307 C   0  0  0  0  0  0  0  0  0  0  0  0
    5.5597    0.5078    0.8254 C   0  0  0  0  0  0  0  0  0  0  0  0
    5.0473   -0.1260    1.9820 C   0  0  0  0  0  0  0  0  0  0  0  0
    3.7353   -0.6414    1.9878 C   0  0  0  0  0  0  0  0  0  0  0  0
    2.9839   -0.5016    0.8234 C   0  0  0  0  0  0  0  0  0  0  0  0
    1.7361   -0.9236    0.5778 N   0  0  0  0  0  0  0  0  0  0  0  0
   -0.9187    1.3505   -0.7462 C   0  0  0  0  0  0  0  0  0  0  0  0
   -0.5819    2.0235   -2.1004 C   0  0  0  0  0  0  0  0  0  0  0  0
   -0.4104    3.5295   -1.9275 C   0  0  0  0  0  0  0  0  0  0  0  0
    0.7897    3.8321   -1.0244 C   0  0  0  0  0  0  0  0  0  0  0  0
    0.8033    2.9916    0.2249 C   0  0  0  0  0  0  0  0  0  0  0  0
    1.6365    3.3737    1.2846 C   0  0  0  0  0  0  0  0  0  0  0  0
    1.6066    2.6691    2.4866 C   0  0  0  0  0  0  0  0  0  0  0  0
    0.7292    1.5967    2.6289 C   0  0  0  0  0  0  0  0  0  0  0  0
   -0.0599    1.2215    1.5888 N   0  0  0  0  0  0  0  0  0  0  0  0
   -0.0185    1.8488    0.3795 C   0  0  0  0  0  0  0  0  0  0  0  0
   -1.7473   -1.5178    2.1188 H   0  0  0  0  0  0  0  0  0  0  0  0
   -2.9990   -0.7995    3.0187 H   0  0  0  0  0  0  0  0  0  0  0  0
   -3.0100   -2.4808    2.7763 H   0  0  0  0  0  0  0  0  0  0  0  0
   -4.6356   -1.4619    1.3453 H   0  0  0  0  0  0  0  0  0  0  0  0
   -3.4154   -0.3115    0.7756 H   0  0  0  0  0  0  0  0  0  0  0  0
   -3.9835   -4.0088    1.2170 H   0  0  0  0  0  0  0  0  0  0  0  0
   -3.4566   -5.7378   -0.4386 H   0  0  0  0  0  0  0  0  0  0  0  0
   -2.3985   -5.1352   -2.5882 H   0  0  0  0  0  0  0  0  0  0  0  0
   -1.8328   -2.7980   -3.0766 H   0  0  0  0  0  0  0  0  0  0  0  0
   -3.0705    0.0643   -1.3412 H   0  0  0  0  0  0  0  0  0  0  0  0
   -2.0485   -0.4945   -2.6528 H   0  0  0  0  0  0  0  0  0  0  0  0
   -1.0558   -0.5127    0.1444 H   0  0  0  0  0  0  0  0  0  0  0  0
    0.3341   -0.5381   -2.5052 H   0  0  0  0  0  0  0  0  0  0  0  0
    0.1044   -1.9080   -1.4078 H   0  0  0  0  0  0  0  0  0  0  0  0
    5.1470    1.1182   -1.2243 H   0  0  0  0  0  0  0  0  0  0  0  0
    6.5690    0.8973    0.8284 H   0  0  0  0  0  0  0  0  0  0  0  0
    5.6698   -0.2204    2.8638 H   0  0  0  0  0  0  0  0  0  0  0  0
    3.3344   -1.1405    2.8595 H   0  0  0  0  0  0  0  0  0  0  0  0
    1.1015   -1.4448    1.2215 H   0  0  0  0  0  0  0  0  0  0  0  0
   -1.9252    1.7211   -0.4485 H   0  0  0  0  0  0  0  0  0  0  0  0
   -1.3969    1.8332   -2.8317 H   0  0  0  0  0  0  0  0  0  0  0  0
    0.3663    1.6377   -2.5220 H   0  0  0  0  0  0  0  0  0  0  0  0
   -0.2453    3.9994   -2.9213 H   0  0  0  0  0  0  0  0  0  0  0  0
   -1.3369    3.9660   -1.4905 H   0  0  0  0  0  0  0  0  0  0  0  0
    1.7348    3.6662   -1.5786 H   0  0  0  0  0  0  0  0  0  0  0  0
    0.7482    4.9103   -0.7527 H   0  0  0  0  0  0  0  0  0  0  0  0
    2.2925    4.2327    1.1929 H   0  0  0  0  0  0  0  0  0  0  0  0
    2.2423    2.9676    3.3093 H   0  0  0  0  0  0  0  0  0  0  0  0
    0.6736    1.0602    3.5660 H   0  0  0  0  0  0  0  0  0  0  0  0
  1  2  1  0
  2  3  1  0
  3  4  2  0
  4  5  1  0
  5  6  2  0
  6  7  1  0
  7  8  2  0
  8  9  1  0
  9 10  1  0
 10 11  1  0
 11 12  1  0
 12 13  2  0
 13 14  1  0
 14 15  2  0
 15 16  1  0
 16 17  2  0
 17 18  1  0
 18 19  2  0
 19 20  1  0
 10 21  1  0
 21 22  1  0
 22 23  1  0
 23 24  1  0
 24 25  1  0
 25 26  2  0
 26 27  1  0
 27 28  2  0
 28 29  1  0
 29 30  2  0
  8  3  1  0
 20 12  1  0
 30 21  1  0
 19 14  1  0
 30 25  1  0
  1 31  1  0
  1 32  1  0
  1 33  1  0
  2 34  1  0
  2 35  1  0
  4 36  1  0
  5 37  1  0
  6 38  1  0
  7 39  1  0
  9 40  1  0
  9 41  1  0
 10 42  1  0
 11 43  1  0
 11 44  1  0
 15 45  1  0
 16 46  1  0
 17 47  1  0
 18 48  1  0
 20 49  1  0
 21 50  1  0
 22 51  1  0
 22 52  1  0
 23 53  1  0
 23 54  1  0
 24 55  1  0
 24 56  1  0
 26 57  1  0
 27 58  1  0
 28 59  1  0
M  CHG  2   1   1  10   1
M  END
>  <IX_DELTA_E>  (144)
0.000

>  <IX_CONF_ID>  (144)
1

>  <IX_Q>  (144)
-0.8530
0.4865
-0.1435
-0.1500
-0.1500
-0.1500
-0.1500
-0.1435
0.4865
-0.9590
0.5230
0.0065
-0.5653
0.2272
-0.1500
-0.1500
-0.1500
-0.1500
-0.1516
0.0332
0.5665
-0.1600
-0.1600
-0.0165
-0.1435
-0.1500
-0.1500
0.1600
-0.6200
0.1665
0.4500
0.4500
0.4500
0.0800
0.0800
0.1500
0.1500
0.1500
0.1500
0.0800
0.0800
0.4500
0.0800
0.0800
0.1500
0.1500
0.1500
0.1500
0.2700
0.0800
0.0800
0.0800
0.0800
0.0800
0.0800
0.0800
0.1500
0.1500
0.1500

>  <IX_ALOGP>  (144)
-1.95000
-0.05160
0.13600
0.15810
0.15810
0.15810
0.15810
0.13600
-0.05160
-1.95000
-0.05160
0.13600
-0.32390
0.29550
0.15810
0.15810
0.15810
0.15810
0.29550
-0.32390
0.11930
0.14410
0.14410
-0.05160
0.13600
0.15810
0.15810
0.15810
-0.32390
0.13600
0.21420
0.21420
0.21420
0.12300
0.12300
0.12300
0.12300
0.12300
0.12300
0.12300
0.12300
0.21420
0.12300
0.12300
0.12300
0.12300
0.12300
0.12300
0.21420
0.12300
0.12300
0.12300
0.12300
0.12300
0.12300
0.12300
0.12300
0.12300
0.12300

$$$$
454522
     RDKit          3D

 58 61  0  0  0  0  0  0  0  0999 V2000
    2.9888    1.7173    1.5964 C   0  0  0  0  0  0  0  0  0  0  0  0
    2.5608    0.4562    1.5466 C   0  0  0  0  0  0  0  0  0  0  0  0
    1.7682   -0.1653    2.6646 C   0  0  0  0  0  0  0  0  0  0  0  0
    0.0919    0.5559    2.7926 S   0  0  0  0  0  0  0  0  0  0  0  0
   -0.4951    0.0014    1.1747 C   0  0  0  0  0  0  0  0  0  0  0  0
   -0.6170    0.8253    0.1725 N   0  0  0  0  0  0  0  0  0  0  0  0
   -0.3403    2.2640    0.2075 C   0  0  0  0  0  0  0  0  0  0  0  0
   -0.0700    2.7659   -1.2174 C   0  0  0  0  0  0  0  0  0  0  0  0
    0.2081    4.2751   -1.2188 C   0  0  0  0  0  0  0  0  0  0  0  0
   -0.9524    5.0530   -0.5835 C   0  0  0  0  0  0  0  0  0  0  0  0
   -1.2666    4.5345    0.8257 C   0  0  0  0  0  0  0  0  0  0  0  0
   -1.5308    3.0223    0.8194 C   0  0  0  0  0  0  0  0  0  0  0  0
   -0.8671   -1.3727    1.0149 N   0  0  0  0  0  0  0  0  0  0  0  0
   -1.9028   -1.8174    0.0774 C   0  0  0  0  0  0  0  0  0  0  0  0
   -1.3582   -2.9728   -0.7762 C   0  0  0  0  0  0  0  0  0  0  0  0
   -2.4398   -3.5327   -1.7078 C   0  0  0  0  0  0  0  0  0  0  0  0
   -3.6735   -3.9783   -0.9122 C   0  0  0  0  0  0  0  0  0  0  0  0
   -4.2264   -2.8264   -0.0646 C   0  0  0  0  0  0  0  0  0  0  0  0
   -3.1463   -2.2669    0.8686 C   0  0  0  0  0  0  0  0  0  0  0  0
    2.9853   -0.2594    0.3874 N   0  0  0  0  0  0  0  0  0  0  0  0
    2.9827   -1.7127    0.2285 C   0  0  0  0  0  0  0  0  0  0  0  0
    3.4115   -2.0813   -1.1959 C   0  0  0  0  0  0  0  0  0  0  0  0
    4.7070   -1.3450   -1.5896 C   0  0  0  0  0  0  0  0  0  0  0  0
    4.6584    0.0825   -1.2619 N   0  0  0  0  0  0  0  0  0  0  0  0
    3.8348    0.5745   -0.3878 C   0  0  0  0  0  0  0  0  0  0  0  0
    3.9022    2.2731    0.1499 S   0  0  0  0  0  0  0  0  0  0  0  0
    2.7892    2.3687    2.4379 H   0  0  0  0  0  0  0  0  0  0  0  0
    1.6905   -1.2643    2.5489 H   0  0  0  0  0  0  0  0  0  0  0  0
    2.2982    0.0238    3.6235 H   0  0  0  0  0  0  0  0  0  0  0  0
    0.5650    2.4602    0.8132 H   0  0  0  0  0  0  0  0  0  0  0  0
    0.8122    2.2329   -1.6326 H   0  0  0  0  0  0  0  0  0  0  0  0
   -0.9439    2.5506   -1.8708 H   0  0  0  0  0  0  0  0  0  0  0  0
    1.1422    4.4819   -0.6536 H   0  0  0  0  0  0  0  0  0  0  0  0
    0.3563    4.6230   -2.2634 H   0  0  0  0  0  0  0  0  0  0  0  0
   -0.6794    6.1290   -0.5264 H   0  0  0  0  0  0  0  0  0  0  0  0
   -1.8580    4.9628   -1.2222 H   0  0  0  0  0  0  0  0  0  0  0  0
   -0.4142    4.7604    1.5020 H   0  0  0  0  0  0  0  0  0  0  0  0
   -2.1627    5.0611    1.2207 H   0  0  0  0  0  0  0  0  0  0  0  0
   -1.7028    2.6829    1.8618 H   0  0  0  0  0  0  0  0  0  0  0  0
   -2.4533    2.8070    0.2386 H   0  0  0  0  0  0  0  0  0  0  0  0
   -0.4947   -2.0682    1.7012 H   0  0  0  0  0  0  0  0  0  0  0  0
   -2.1980   -0.9856   -0.6030 H   0  0  0  0  0  0  0  0  0  0  0  0
   -0.5026   -2.6088   -1.3864 H   0  0  0  0  0  0  0  0  0  0  0  0
   -0.9850   -3.7864   -0.1149 H   0  0  0  0  0  0  0  0  0  0  0  0
   -2.7316   -2.7590   -2.4522 H   0  0  0  0  0  0  0  0  0  0  0  0
   -2.0273   -4.4045   -2.2595 H   0  0  0  0  0  0  0  0  0  0  0  0
   -4.4611   -4.3257   -1.6143 H   0  0  0  0  0  0  0  0  0  0  0  0
   -3.4027   -4.8324   -0.2511 H   0  0  0  0  0  0  0  0  0  0  0  0
   -4.6034   -2.0178   -0.7308 H   0  0  0  0  0  0  0  0  0  0  0  0
   -5.0824   -3.1983    0.5411 H   0  0  0  0  0  0  0  0  0  0  0  0
   -3.5625   -1.4017    1.4291 H   0  0  0  0  0  0  0  0  0  0  0  0
   -2.8603   -3.0468    1.6103 H   0  0  0  0  0  0  0  0  0  0  0  0
    1.9614   -2.1160    0.4101 H   0  0  0  0  0  0  0  0  0  0  0  0
    3.6882   -2.1633    0.9617 H   0  0  0  0  0  0  0  0  0  0  0  0
    3.5634   -3.1793   -1.2727 H   0  0  0  0  0  0  0  0  0  0  0  0
    2.6044   -1.7944   -1.9051 H   0  0  0  0  0  0  0  0  0  0  0  0
    5.5752   -1.8047   -1.0700 H   0  0  0  0  0  0  0  0  0  0  0  0
    4.8664   -1.4575   -2.6823 H   0  0  0  0  0  0  0  0  0  0  0  0
  1  2  2  0
  2  3  1  0
  3  4  1  0
  4  5  1  0
  5  6  2  0
  6  7  1  0
  7  8  1  0
  8  9  1  0
  9 10  1  0
 10 11  1  0
 11 12  1  0
  5 13  1  0
 13 14  1  0
 14 15  1  0
 15 16  1  0
 16 17  1  0
 17 18  1  0
 18 19  1  0
  2 20  1  0
 20 21  1  0
 21 22  1  0
 22 23  1  0
 23 24  1  0
 24 25  2  0
 25 26  1  0
 26  1  1  0
 12  7  1  0
 19 14  1  0
 25 20  1  0
  1 27  1  0
  3 28  1  0
  3 29  1  0
  7 30  1  0
  8 31  1  0
  8 32  1  0
  9 33  1  0
  9 34  1  0
 10 35  1  0
 10 36  1  0
 11 37  1  0
 11 38  1  0
 12 39  1  0
 12 40  1  0
 13 41  1  0
 14 42  1  0
 15 43  1  0
 15 44  1  0
 16 45  1  0
 16 46  1  0
 17 47  1  0
 17 48  1  0
 18 49  1  0
 18 50  1  0
 19 51  1  0
 19 52  1  0
 21 53  1  0
 21 54  1  0
 22 55  1  0
 22 56  1  0
 23 57  1  0
 23 58  1  0
M  END
>  <IX_DELTA_E>  (148)
0.000

>  <IX_CONF_ID>  (148)
1

>  <IX_Q>  (148)
-0.0490
-0.0382
0.2082
-0.3710
0.6410
-0.6960
0.1660
-0.1600
-0.1600
-0.1600
-0.1600
-0.1600
-0.8191
0.2891
-0.1600
-0.1600
-0.1600
-0.1600
-0.1600
-0.5191
0.2091
-0.1600
0.0860
-0.6960
0.6410
-0.2420
0.1500
0.0800
0.0800
0.0800
0.0800
0.0800
0.0800
0.0800
0.0800
0.0800
0.0800
0.0800
0.0800
0.0800
0.4000
0.0800
0.0800
0.0800
0.0800
0.0800
0.0800
0.0800
0.0800
0.0800
0.0800
0.0800
0.0800
0.0800
0.0800
0.0800
0.0800
0.0800

>  <IX_ALOGP>  (148)
0.15510
0.15510
-0.20350
0.64820
-0.27830
0.18360
-0.20510
0.14410
0.14410
0.14410
0.14410
0.14410
-0.70960
-0.20510
0.14410
0.14410
0.14410
0.14410
0.14410
-0.31870
-0.20350
0.14410
-0.20350
0.18360
-0.27830
0.64820
0.12300
0.12300
0.12300
0.12300
0.12300
0.12300
0.12300
0.12300
0.12300
0.12300
0.12300
0.12300
0.12300
0.12300
0.21420
0.12300
0.12300
0.12300
0.12300
0.12300
0.12300
0.12300
0.12300
0.12300
0.12300
0.12300
0.12300
0.12300
0.12300
0.12300
0.12300
0.12300

$$$$
547149
     RDKit          3D

 98100  0  0  0  0  0  0  0  0999 V2000
   -0.9758    0.2972    0.4311 C   0  0  0  0  0  0  0  0  0  0  0  0
    0.1750   -0.1869    1.0640 C   0  0  0  0  0  0  0  0  0  0  0  0
    0.9282   -1.2135    0.4736 C   0  0  0  0  0  0  0  0  0  0  0  0
    2.2418   -1.6583    1.0764 C   0  0  0  0  0  0  0  0  0  0  0  0
    3.4033   -1.1325    0.3052 N   0  0  0  0  0  0  0  0  0  0  0  0
    4.6285   -1.9397    0.5496 C   0  0  0  0  0  0  0  0  0  0  0  0
    5.6693   -1.7757   -0.5843 C   0  0  0  0  0  0  0  0  0  0  0  0
    6.9219   -2.6390   -0.3434 C   0  0  0  0  0  0  0  0  0  0  0  0
    7.8677   -2.5858   -1.4830 N   0  0  0  0  0  0  0  0  0  0  0  0
    9.0016   -1.6571   -1.2896 C   0  0  0  0  0  0  0  0  0  0  0  0
    8.6204   -0.1717   -1.4969 C   0  0  0  0  0  0  0  0  0  0  0  0
    8.4435    0.5264   -0.2104 N   0  0  0  0  0  0  0  0  0  0  0  0
    7.6646    1.7676   -0.3809 C   0  0  0  0  0  0  0  0  0  0  0  0
    7.3673    2.4584    0.9770 C   0  0  0  0  0  0  0  0  0  0  0  0
    5.9394    2.3876    1.3529 N   0  0  0  0  0  0  0  0  0  0  0  0
    5.5916    1.0876    1.9612 C   0  0  0  0  0  0  0  0  0  0  0  0
    4.0813    0.7911    1.8980 C   0  0  0  0  0  0  0  0  0  0  0  0
    3.6000    0.3362    0.4887 C   0  0  0  0  0  0  0  0  0  0  0  0
    0.4855   -1.7851   -0.7304 C   0  0  0  0  0  0  0  0  0  0  0  0
   -0.6547   -1.2938   -1.3692 C   0  0  0  0  0  0  0  0  0  0  0  0
   -1.3777   -0.2313   -0.8075 C   0  0  0  0  0  0  0  0  0  0  0  0
   -2.5227    0.3997   -1.5632 C   0  0  0  0  0  0  0  0  0  0  0  0
   -3.8549   -0.0343   -1.0586 N   0  0  0  0  0  0  0  0  0  0  0  0
   -4.1972   -1.3570   -1.6547 C   0  0  0  0  0  0  0  0  0  0  0  0
   -5.4348   -2.0637   -1.0416 C   0  0  0  0  0  0  0  0  0  0  0  0
   -5.3286   -2.3684    0.4713 C   0  0  0  0  0  0  0  0  0  0  0  0
   -6.0631   -1.3924    1.2974 N   0  0  0  0  0  0  0  0  0  0  0  0
   -7.5156   -1.6618    1.3344 C   0  0  0  0  0  0  0  0  0  0  0  0
   -8.3016   -0.4372    1.8481 C   0  0  0  0  0  0  0  0  0  0  0  0
   -8.3661    0.6527    0.8432 N   0  0  0  0  0  0  0  0  0  0  0  0
   -7.9506    1.9473    1.4150 C   0  0  0  0  0  0  0  0  0  0  0  0
   -8.0650    3.1198    0.4124 C   0  0  0  0  0  0  0  0  0  0  0  0
   -7.2650    2.9803   -0.8256 N   0  0  0  0  0  0  0  0  0  0  0  0
   -5.8283    3.3144   -0.6810 C   0  0  0  0  0  0  0  0  0  0  0  0
   -4.9117    2.1239   -0.3306 C   0  0  0  0  0  0  0  0  0  0  0  0
   -4.8699    1.0031   -1.3966 C   0  0  0  0  0  0  0  0  0  0  0  0
   -1.5274    1.1135    0.8802 H   0  0  0  0  0  0  0  0  0  0  0  0
    0.4970    0.2642    1.9946 H   0  0  0  0  0  0  0  0  0  0  0  0
    2.2384   -2.7709    1.0655 H   0  0  0  0  0  0  0  0  0  0  0  0
    2.2937   -1.3753    2.1468 H   0  0  0  0  0  0  0  0  0  0  0  0
    3.1670   -1.2640   -0.7079 H   0  0  0  0  0  0  0  0  0  0  0  0
    4.3705   -3.0202    0.5789 H   0  0  0  0  0  0  0  0  0  0  0  0
    5.0755   -1.7092    1.5390 H   0  0  0  0  0  0  0  0  0  0  0  0
    5.2006   -2.0793   -1.5455 H   0  0  0  0  0  0  0  0  0  0  0  0
    5.9677   -0.7180   -0.6762 H   0  0  0  0  0  0  0  0  0  0  0  0
    7.4105   -2.3472    0.6113 H   0  0  0  0  0  0  0  0  0  0  0  0
    6.5829   -3.6928   -0.2082 H   0  0  0  0  0  0  0  0  0  0  0  0
    7.3759   -2.3783   -2.3825 H   0  0  0  0  0  0  0  0  0  0  0  0
    8.2772   -3.5435   -1.5931 H   0  0  0  0  0  0  0  0  0  0  0  0
    9.7814   -1.9079   -2.0440 H   0  0  0  0  0  0  0  0  0  0  0  0
    9.4821   -1.8179   -0.2984 H   0  0  0  0  0  0  0  0  0  0  0  0
    9.4374    0.3292   -2.0625 H   0  0  0  0  0  0  0  0  0  0  0  0
    7.7119   -0.1018   -2.1351 H   0  0  0  0  0  0  0  0  0  0  0  0
    7.9695   -0.1003    0.4693 H   0  0  0  0  0  0  0  0  0  0  0  0
    9.3854    0.7656    0.1799 H   0  0  0  0  0  0  0  0  0  0  0  0
    8.2443    2.4727   -1.0195 H   0  0  0  0  0  0  0  0  0  0  0  0
    6.7143    1.5562   -0.9183 H   0  0  0  0  0  0  0  0  0  0  0  0
    7.6516    3.5294    0.8821 H   0  0  0  0  0  0  0  0  0  0  0  0
    8.0081    2.0446    1.7872 H   0  0  0  0  0  0  0  0  0  0  0  0
    5.3388    2.6024    0.5244 H   0  0  0  0  0  0  0  0  0  0  0  0
    5.7537    3.1339    2.0647 H   0  0  0  0  0  0  0  0  0  0  0  0
    5.9132    1.0871    3.0291 H   0  0  0  0  0  0  0  0  0  0  0  0
    6.1311    0.2612    1.4737 H   0  0  0  0  0  0  0  0  0  0  0  0
    3.8487    0.0342    2.6715 H   0  0  0  0  0  0  0  0  0  0  0  0
    3.5341    1.7129    2.1911 H   0  0  0  0  0  0  0  0  0  0  0  0
    4.2835    0.7228   -0.2958 H   0  0  0  0  0  0  0  0  0  0  0  0
    2.6428    0.8620    0.2792 H   0  0  0  0  0  0  0  0  0  0  0  0
    1.0502   -2.5841   -1.1951 H   0  0  0  0  0  0  0  0  0  0  0  0
   -0.9545   -1.7229   -2.3184 H   0  0  0  0  0  0  0  0  0  0  0  0
   -2.4266    0.1880   -2.6523 H   0  0  0  0  0  0  0  0  0  0  0  0
   -2.3930    1.4997   -1.4800 H   0  0  0  0  0  0  0  0  0  0  0  0
   -3.7979   -0.1434   -0.0202 H   0  0  0  0  0  0  0  0  0  0  0  0
   -3.3431   -2.0585   -1.5400 H   0  0  0  0  0  0  0  0  0  0  0  0
   -4.3683   -1.2432   -2.7484 H   0  0  0  0  0  0  0  0  0  0  0  0
   -6.3686   -1.5215   -1.2825 H   0  0  0  0  0  0  0  0  0  0  0  0
   -5.5305   -3.0363   -1.5686 H   0  0  0  0  0  0  0  0  0  0  0  0
   -4.2609   -2.3875    0.7780 H   0  0  0  0  0  0  0  0  0  0  0  0
   -5.7206   -3.3926    0.6684 H   0  0  0  0  0  0  0  0  0  0  0  0
   -5.8745   -0.4300    0.9466 H   0  0  0  0  0  0  0  0  0  0  0  0
   -5.6967   -1.4456    2.2770 H   0  0  0  0  0  0  0  0  0  0  0  0
   -7.7116   -2.5231    2.0117 H   0  0  0  0  0  0  0  0  0  0  0  0
   -7.9080   -1.9447    0.3327 H   0  0  0  0  0  0  0  0  0  0  0  0
   -7.8430   -0.1036    2.8073 H   0  0  0  0  0  0  0  0  0  0  0  0
   -9.3346   -0.7710    2.0973 H   0  0  0  0  0  0  0  0  0  0  0  0
   -9.3504    0.7371    0.4979 H   0  0  0  0  0  0  0  0  0  0  0  0
   -7.7675    0.4222    0.0224 H   0  0  0  0  0  0  0  0  0  0  0  0
   -8.6127    2.1860    2.2761 H   0  0  0  0  0  0  0  0  0  0  0  0
   -6.9282    1.8875    1.8311 H   0  0  0  0  0  0  0  0  0  0  0  0
   -7.8032    4.0636    0.9389 H   0  0  0  0  0  0  0  0  0  0  0  0
   -9.1390    3.2148    0.1340 H   0  0  0  0  0  0  0  0  0  0  0  0
   -7.4220    2.0654   -1.2956 H   0  0  0  0  0  0  0  0  0  0  0  0
   -7.6570    3.6859   -1.4930 H   0  0  0  0  0  0  0  0  0  0  0  0
   -5.6816    4.1082    0.0843 H   0  0  0  0  0  0  0  0  0  0  0  0
   -5.4550    3.7445   -1.6401 H   0  0  0  0  0  0  0  0  0  0  0  0
   -3.8900    2.5338   -0.1967 H   0  0  0  0  0  0  0  0  0  0  0  0
   -5.1795    1.6976    0.6467 H   0  0  0  0  0  0  0  0  0  0  0  0
   -4.6671    1.4413   -2.3995 H   0  0  0  0  0  0  0  0  0  0  0  0
   -5.8734    0.5586   -1.4595 H   0  0  0  0  0  0  0  0  0  0  0  0
  1  2  2  0
  2  3  1  0
  3  4  1  0
  4  5  1  0
  5  6  1  0
  6  7  1  0
  7  8  1  0
  8  9  1  0
  9 10  1  0
 10 11  1  0
 11 12  1  0
 12 13  1  0
 13 14  1  0
 14 15  1  0
 15 16  1  0
 16 17  1  0
 17 18  1  0
  3 19  2  0
 19 20  1  0
 20 21  2  0
 21 22  1  0
 22 23  1  0
 23 24  1  0
 24 25  1  0
 25 26  1  0
 26 27  1  0
 27 28  1  0
 28 29  1  0
 29 30  1  0
 30 31  1  0
 31 32  1  0
 32 33  1  0
 33 34  1  0
 34 35  1  0
 35 36  1  0
 21  1  1  0
 36 23  1  0
 18  5  1  0
  1 37  1  0
  2 38  1  0
  4 39  1  0
  4 40  1  0
  5 41  1  0
  6 42  1  0
  6 43  1  0
  7 44  1  0
  7 45  1  0
  8 46  1  0
  8 47  1  0
  9 48  1  0
  9 49  1  0
 10 50  1  0
 10 51  1  0
 11 52  1  0
 11 53  1  0
 12 54  1  0
 12 55  1  0
 13 56  1  0
 13 57  1  0
 14 58  1  0
 14 59  1  0
 15 60  1  0
 15 61  1  0
 16 62  1  0
 16 63  1  0
 17 64  1  0
 17 65  1  0
 18 66  1  0
 18 67  1  0
 19 68  1  0
 20 69  1  0
 22 70  1  0
 22 71  1  0
 23 72  1  0
 24 73  1  0
 24 74  1  0
 25 75  1  0
 25 76  1  0
 26 77  1  0
 26 78  1  0
 27 79  1  0
 27 80  1  0
 28 81  1  0
 28 82  1  0
 29 83  1  0
 29 84  1  0
 30 85  1  0
 30 86  1  0
 31 87  1  0
 31 88  1  0
 32 89  1  0
 32 90  1  0
 33 91  1  0
 33 92  1  0
 34 93  1  0
 34 94  1  0
 35 95  1  0
 35 96  1  0
 36 97  1  0
 36 98  1  0
M  CHG  8   5   1   9   1  12   1  15   1  23   1  27   1  30   1  33   1
M  END
>  <IX_DELTA_E>  (151)
0.000

>  <IX_CONF_ID>  (151)
1

>  <IX_Q>  (151)
-0.1500
-0.1500
-0.1435
0.4865
-0.9590
0.3430
-0.1600
0.3430
-0.9060
0.3430
0.3430
-0.9060
0.3430
0.3430
-0.9060
0.3430
-0.1600
0.3430
-0.1500
-0.1500
-0.1435
0.4865
-0.9590
0.3430
-0.1600
0.3430
-0.9060
0.3430
0.3430
-0.9060
0.3430
0.3430
-0.9060
0.3430
-0.1600
0.3430
0.1500
0.1500
0.0800
0.0800
0.4500
0.0800
0.0800
0.0800
0.0800
0.0800
0.0800
0.4500
0.4500
0.0800
0.0800
0.0800
0.0800
0.4500
0.4500
0.0800
0.0800
0.0800
0.0800
0.4500
0.4500
0.0800
0.0800
0.0800
0.0800
0.0800
0.0800
0.1500
0.1500
0.0800
0.0800
0.4500
0.0800
0.0800
0.0800
0.0800
0.0800
0.0800
0.4500
0.4500
0.0800
0.0800
0.0800
0.0800
0.4500
0.4500
0.0800
0.0800
0.0800
0.0800
0.4500
0.4500
0.0800
0.0800
0.0800
0.0800
0.0800
0.0800

>  <IX_ALOGP>  (151)
0.15810
0.15810
0.13600
-0.05160
-1.95000
-0.20350
0.14410
-0.20350
-1.95000
-0.20350
-0.20350
-1.95000
-0.20350
-0.20350
-1.95000
-0.20350
0.14410
-0.20350
0.15810
0.15810
0.13600
-0.05160
-1.95000
-0.20350
0.14410
-0.20350
-1.95000
-0.20350
-0.20350
-1.95000
-0.20350
-0.20350
-1.95000
-0.20350
0.14410
-0.20350
0.12300
0.12300
0.12300
0.12300
0.21420
0.12300
0.12300
0.12300
0.12300
0.12300
0.12300
0.21420
0.21420
0.12300
0.12300
0.12300
0.12300
0.21420
0.21420
0.12300
0.12300
0.12300
0.12300
0.21420
0.21420
0.12300
0.12300
0.12300
0.12300
0.12300
0.12300
0.12300
0.12300
0.12300
0.12300
0.21420
0.12300
0.12300
0.12300
0.12300
0.12300
0.12300
0.21420
0.21420
0.12300
0.12300
0.12300
0.12300
0.21420
0.21420
0.12300
0.12300
0.12300
0.12300
0.21420
0.21420
0.12300
0.12300
0.12300
0.12300
0.12300
0.12300

$$$$
621180
     RDKit          3D

 52 55  0  0  0  0  0  0  0  0999 V2000
    0.6210    3.2034    1.5037 N   0  0  0  0  0  0  0  0  0  0  0  0
   -0.0169    2.0633    2.1662 C   0  0  0  0  0  0  0  0  0  0  0  0
    0.2486    0.7383    1.4287 C   0  0  0  0  0  0  0  0  0  0  0  0
   -0.4960    0.6514    0.0807 C   0  0  0  0  0  0  0  0  0  0  0  0
   -0.2720   -0.6638   -0.5994 N   0  0  0  0  0  0  0  0  0  0  0  0
    0.6894   -0.5378   -1.7288 C   0  0  0  0  0  0  0  0  0  0  0  0
    2.0823   -0.2475   -1.2494 C   0  0  0  0  0  0  0  0  0  0  0  0
    2.8994   -1.2044   -0.7323 N   0  0  0  0  0  0  0  0  0  0  0  0
    4.0228   -0.5183   -0.4580 C   0  0  0  0  0  0  0  0  0  0  0  0
    5.2089   -1.0058    0.0888 C   0  0  0  0  0  0  0  0  0  0  0  0
    6.2607   -0.0906    0.2833 C   0  0  0  0  0  0  0  0  0  0  0  0
    6.1004    1.2713   -0.0664 C   0  0  0  0  0  0  0  0  0  0  0  0
    4.8866    1.7265   -0.6160 C   0  0  0  0  0  0  0  0  0  0  0  0
    3.8714    0.7932   -0.7960 C   0  0  0  0  0  0  0  0  0  0  0  0
    2.6484    0.9830   -1.3042 N   0  0  0  0  0  0  0  0  0  0  0  0
   -1.5492   -1.2971   -1.0550 C   0  0  0  0  0  0  0  0  0  0  0  0
   -2.2408   -0.4872   -2.1921 C   0  0  0  0  0  0  0  0  0  0  0  0
   -3.6996   -0.8956   -2.3695 C   0  0  0  0  0  0  0  0  0  0  0  0
   -4.4888   -0.6049   -1.0971 C   0  0  0  0  0  0  0  0  0  0  0  0
   -3.8475   -1.2462    0.1049 C   0  0  0  0  0  0  0  0  0  0  0  0
   -4.6303   -1.5169    1.2375 C   0  0  0  0  0  0  0  0  0  0  0  0
   -4.0665   -2.1469    2.3465 C   0  0  0  0  0  0  0  0  0  0  0  0
   -2.7167   -2.4974    2.3175 C   0  0  0  0  0  0  0  0  0  0  0  0
   -1.9630   -2.2132    1.2230 N   0  0  0  0  0  0  0  0  0  0  0  0
   -2.4751   -1.5863    0.1247 C   0  0  0  0  0  0  0  0  0  0  0  0
    0.5338    4.0447    2.1236 H   0  0  0  0  0  0  0  0  0  0  0  0
    0.1432    3.4118    0.5991 H   0  0  0  0  0  0  0  0  0  0  0  0
    1.6362    3.0105    1.3384 H   0  0  0  0  0  0  0  0  0  0  0  0
   -1.1128    2.2404    2.2558 H   0  0  0  0  0  0  0  0  0  0  0  0
    0.3846    1.9742    3.1984 H   0  0  0  0  0  0  0  0  0  0  0  0
    1.3424    0.6071    1.2791 H   0  0  0  0  0  0  0  0  0  0  0  0
   -0.1035   -0.0914    2.0814 H   0  0  0  0  0  0  0  0  0  0  0  0
   -1.5763    0.8283    0.2892 H   0  0  0  0  0  0  0  0  0  0  0  0
   -0.1779    1.4987   -0.5675 H   0  0  0  0  0  0  0  0  0  0  0  0
    0.1596   -1.3377    0.0769 H   0  0  0  0  0  0  0  0  0  0  0  0
    0.3764    0.2665   -2.4302 H   0  0  0  0  0  0  0  0  0  0  0  0
    0.7342   -1.4793   -2.3205 H   0  0  0  0  0  0  0  0  0  0  0  0
    5.3212   -2.0509    0.3457 H   0  0  0  0  0  0  0  0  0  0  0  0
    7.1987   -0.4281    0.7036 H   0  0  0  0  0  0  0  0  0  0  0  0
    6.9156    1.9668    0.0833 H   0  0  0  0  0  0  0  0  0  0  0  0
    4.7489    2.7643   -0.8905 H   0  0  0  0  0  0  0  0  0  0  0  0
    2.2280    1.8752   -1.6538 H   0  0  0  0  0  0  0  0  0  0  0  0
   -1.3144   -2.2991   -1.4789 H   0  0  0  0  0  0  0  0  0  0  0  0
   -1.7127   -0.6681   -3.1545 H   0  0  0  0  0  0  0  0  0  0  0  0
   -2.2013    0.6076   -1.9963 H   0  0  0  0  0  0  0  0  0  0  0  0
   -4.1464   -0.3285   -3.2142 H   0  0  0  0  0  0  0  0  0  0  0  0
   -3.7610   -1.9796   -2.6122 H   0  0  0  0  0  0  0  0  0  0  0  0
   -5.5206   -0.9938   -1.2349 H   0  0  0  0  0  0  0  0  0  0  0  0
   -4.5604    0.4927   -0.9330 H   0  0  0  0  0  0  0  0  0  0  0  0
   -5.6778   -1.2450    1.2578 H   0  0  0  0  0  0  0  0  0  0  0  0
   -4.6714   -2.3667    3.2171 H   0  0  0  0  0  0  0  0  0  0  0  0
   -2.2640   -2.9909    3.1684 H   0  0  0  0  0  0  0  0  0  0  0  0
  1  2  1  0
  2  3  1  0
  3  4  1  0
  4  5  1  0
  5  6  1  0
  6  7  1  0
  7  8  2  0
  8  9  1  0
  9 10  2  0
 10 11  1  0
 11 12  2  0
 12 13  1  0
 13 14  2  0
 14 15  1  0
  5 16  1  0
 16 17  1  0
 17 18  1  0
 18 19  1  0
 19 20  1  0
 20 21  2  0
 21 22  1  0
 22 23  2  0
 23 24  1  0
 24 25  2  0
 15  7  1  0
 25 16  1  0
 14  9  1  0
 25 20  1  0
  1 26  1  0
  1 27  1  0
  1 28  1  0
  2 29  1  0
  2 30  1  0
  3 31  1  0
  3 32  1  0
  4 33  1  0
  4 34  1  0
  5 35  1  0
  6 36  1  0
  6 37  1  0
 10 38  1  0
 11 39  1  0
 12 40  1  0
 13 41  1  0
 15 42  1  0
 16 43  1  0
 17 44  1  0
 17 45  1  0
 18 46  1  0
 18 47  1  0
 19 48  1  0
 19 49  1  0
 21 50  1  0
 22 51  1  0
 23 52  1  0
M  CHG  2   1   1   5   1
M  END
>  <IX_DELTA_E>  (159)
0.000

>  <IX_CONF_ID>  (159)
1

>  <IX_Q>  (159)
-0.8530
0.3430
-0.1600
0.3430
-0.9590
0.5230
0.0065
-0.5653
0.2272
-0.1500
-0.1500
-0.1500
-0.1500
-0.1516
0.0332
0.5665
-0.1600
-0.1600
-0.0165
-0.1435
-0.1500
-0.1500
0.1600
-0.6200
0.1665
0.4500
0.4500
0.4500
0.0800
0.0800
0.0800
0.0800
0.0800
0.0800
0.4500
0.0800
0.0800
0.1500
0.1500
0.1500
0.1500
0.2700
0.0800
0.0800
0.0800
0.0800
0.0800
0.0800
0.0800
0.1500
0.1500
0.1500

>  <IX_ALOGP>  (159)
-1.95000
-0.20350
0.14410
-0.20350
-1.95000
-0.05160
0.13600
-0.32390
0.29550
0.15810
0.15810
0.15810
0.15810
0.29550
-0.32390
0.11930
0.14410
0.14410
-0.05160
0.13600
0.15810
0.15810
0.15810
-0.32390
0.13600
0.21420
0.21420
0.21420
0.12300
0.12300
0.12300
0.12300
0.12300
0.12300
0.21420
0.12300
0.12300
0.12300
0.12300
0.12300
0.12300
0.21420
0.12300
0.12300
0.12300
0.12300
0.12300
0.12300
0.12300
0.12300
0.12300
0.12300

$$$$
454387
     RDKit          3D

 57 59  0  0  0  0  0  0  0  0999 V2000
    5.7962   -0.6464    2.0635 C   0  0  0  0  0  0  0  0  0  0  0  0
    5.7324   -0.8315    0.5504 C   0  0  0  0  0  0  0  0  0  0  0  0
    4.3034   -0.6402    0.0287 C   0  0  0  0  0  0  0  0  0  0  0  0
    4.2300   -0.9100   -1.4806 C   0  0  0  0  0  0  0  0  0  0  0  0
    2.7970   -0.8456   -2.0398 C   0  0  0  0  0  0  0  0  0  0  0  0
    2.2679    0.5899   -2.2047 C   0  0  0  0  0  0  0  0  0  0  0  0
    1.7877    1.1307   -0.9334 N   0  0  0  0  0  0  0  0  0  0  0  0
    0.5893    0.6765   -0.2914 C   0  0  0  0  0  0  0  0  0  0  0  0
   -0.2128   -0.1406   -0.9130 N   0  0  0  0  0  0  0  0  0  0  0  0
   -1.4288   -0.7394   -0.3617 C   0  0  0  0  0  0  0  0  0  0  0  0
   -1.0772   -2.0266    0.4045 C   0  0  0  0  0  0  0  0  0  0  0  0
   -2.3437   -2.7117    0.9369 C   0  0  0  0  0  0  0  0  0  0  0  0
   -3.3412   -2.9988   -0.1946 C   0  0  0  0  0  0  0  0  0  0  0  0
   -3.6766   -1.7163   -0.9668 C   0  0  0  0  0  0  0  0  0  0  0  0
   -2.4027   -1.0530   -1.5064 C   0  0  0  0  0  0  0  0  0  0  0  0
    0.2360    1.2614    1.3794 S   0  0  0  0  0  0  0  0  0  0  0  0
   -0.3515    2.9176    0.8711 C   0  0  0  0  0  0  0  0  0  0  0  0
   -1.6846    2.8490    0.1802 C   0  0  0  0  0  0  0  0  0  0  0  0
   -1.8233    2.7583   -1.1436 C   0  0  0  0  0  0  0  0  0  0  0  0
   -3.5336    2.7075   -1.7265 S   0  0  0  0  0  0  0  0  0  0  0  0
   -3.9667    2.6400   -0.0005 C   0  0  0  0  0  0  0  0  0  0  0  0
   -4.8932    1.8907    0.4799 N   0  0  0  0  0  0  0  0  0  0  0  0
   -4.6411    1.6792    1.9040 C   0  0  0  0  0  0  0  0  0  0  0  0
   -3.2510    2.2929    2.1573 C   0  0  0  0  0  0  0  0  0  0  0  0
   -2.9193    2.9090    0.8854 N   0  0  0  0  0  0  0  0  0  0  0  0
    5.4189    0.3591    2.3493 H   0  0  0  0  0  0  0  0  0  0  0  0
    6.8480   -0.7396    2.4070 H   0  0  0  0  0  0  0  0  0  0  0  0
    5.1857   -1.4240    2.5704 H   0  0  0  0  0  0  0  0  0  0  0  0
    6.4071   -0.0897    0.0679 H   0  0  0  0  0  0  0  0  0  0  0  0
    6.0956   -1.8525    0.2996 H   0  0  0  0  0  0  0  0  0  0  0  0
    3.9923    0.4022    0.2434 H   0  0  0  0  0  0  0  0  0  0  0  0
    3.6181   -1.3345    0.5624 H   0  0  0  0  0  0  0  0  0  0  0  0
    4.8833   -0.1955   -2.0254 H   0  0  0  0  0  0  0  0  0  0  0  0
    4.6226   -1.9325   -1.6752 H   0  0  0  0  0  0  0  0  0  0  0  0
    2.1101   -1.4550   -1.4142 H   0  0  0  0  0  0  0  0  0  0  0  0
    2.8088   -1.3130   -3.0480 H   0  0  0  0  0  0  0  0  0  0  0  0
    3.0680    1.2465   -2.6084 H   0  0  0  0  0  0  0  0  0  0  0  0
    1.4356    0.6015   -2.9426 H   0  0  0  0  0  0  0  0  0  0  0  0
    2.3349    1.8975   -0.4822 H   0  0  0  0  0  0  0  0  0  0  0  0
   -1.9344   -0.0245    0.3239 H   0  0  0  0  0  0  0  0  0  0  0  0
   -0.4126   -1.7820    1.2617 H   0  0  0  0  0  0  0  0  0  0  0  0
   -0.5253   -2.7268   -0.2620 H   0  0  0  0  0  0  0  0  0  0  0  0
   -2.8235   -2.0606    1.6981 H   0  0  0  0  0  0  0  0  0  0  0  0
   -2.0647   -3.6668    1.4290 H   0  0  0  0  0  0  0  0  0  0  0  0
   -4.2755   -3.4151    0.2416 H   0  0  0  0  0  0  0  0  0  0  0  0
   -2.9173   -3.7567   -0.8888 H   0  0  0  0  0  0  0  0  0  0  0  0
   -4.2094   -1.0084   -0.2960 H   0  0  0  0  0  0  0  0  0  0  0  0
   -4.3560   -1.9585   -1.8099 H   0  0  0  0  0  0  0  0  0  0  0  0
   -2.6815   -0.1105   -2.0223 H   0  0  0  0  0  0  0  0  0  0  0  0
   -1.9182   -1.7207   -2.2527 H   0  0  0  0  0  0  0  0  0  0  0  0
   -0.4535    3.5439    1.7845 H   0  0  0  0  0  0  0  0  0  0  0  0
    0.4027    3.4093    0.2197 H   0  0  0  0  0  0  0  0  0  0  0  0
   -0.9784    2.6976   -1.8183 H   0  0  0  0  0  0  0  0  0  0  0  0
   -4.6466    0.5899    2.1315 H   0  0  0  0  0  0  0  0  0  0  0  0
   -5.4188    2.1994    2.5037 H   0  0  0  0  0  0  0  0  0  0  0  0
   -3.2962    3.0701    2.9510 H   0  0  0  0  0  0  0  0  0  0  0  0
   -2.5124    1.5075    2.4230 H   0  0  0  0  0  0  0  0  0  0  0  0
  1  2  1  0
  2  3  1  0
  3  4  1  0
  4  5  1  0
  5  6  1  0
  6  7  1  0
  7  8  1  0
  8  9  2  0
  9 10  1  0
 10 11  1  0
 11 12  1  0
 12 13  1  0
 13 14  1  0
 14 15  1  0
  8 16  1  0
 16 17  1  0
 17 18  1  0
 18 19  2  0
 19 20  1  0
 20 21  1  0
 21 22  2  0
 22 23  1  0
 23 24  1  0
 24 25  1  0
 15 10  1  0
 25 18  1  0
 25 21  1  0
  1 26  1  0
  1 27  1  0
  1 28  1  0
  2 29  1  0
  2 30  1  0
  3 31  1  0
  3 32  1  0
  4 33  1  0
  4 34  1  0
  5 35  1  0
  5 36  1  0
  6 37  1  0
  6 38  1  0
  7 39  1  0
 10 40  1  0
 11 41  1  0
 11 42  1  0
 12 43  1  0
 12 44  1  0
 13 45  1  0
 13 46  1  0
 14 47  1  0
 14 48  1  0
 15 49  1  0
 15 50  1  0
 17 51  1  0
 17 52  1  0
 19 53  1  0
 23 54  1  0
 23 55  1  0
 24 56  1  0
 24 57  1  0
M  END
>  <IX_DELTA_E>  (170)
0.000

>  <IX_CONF_ID>  (170)
1

>  <IX_Q>  (170)
-0.2400
-0.1600
-0.1600
-0.1600
-0.1600
0.2091
-0.8191
0.6410
-0.6960
0.1660
-0.1600
-0.1600
-0.1600
-0.1600
-0.1600
-0.3710
0.2082
-0.0382
-0.0490
-0.2420
0.6410
-0.6960
0.0860
0.2091
-0.5191
0.0800
0.0800
0.0800
0.0800
0.0800
0.0800
0.0800
0.0800
0.0800
0.0800
0.0800
0.0800
0.0800
0.4000
0.0800
0.0800
0.0800
0.0800
0.0800
0.0800
0.0800
0.0800
0.0800
0.0800
0.0800
0.0800
0.0800
0.1500
0.0800
0.0800
0.0800
0.0800

>  <IX_ALOGP>  (170)
0.14410
0.14410
0.14410
0.14410
0.14410
-0.20350
-0.70960
-0.27830
0.18360
-0.20510
0.14410
0.14410
0.14410
0.14410
0.14410
0.64820
-0.20350
0.15510
0.15510
0.64820
-0.27830
0.18360
-0.20350
-0.20350
-0.31870
0.12300
0.12300
0.12300
0.12300
0.12300
0.12300
0.12300
0.12300
0.12300
0.12300
0.12300
0.12300
0.12300
0.21420
0.12300
0.12300
0.12300
0.12300
0.12300
0.12300
0.12300
0.12300
0.12300
0.12300
0.12300
0.12300
0.12300
0.12300
0.12300
0.12300
0.12300
0.12300

$$$$
621183
     RDKit          3D

 61 64  0  0  0  0  0  0  0  0999 V2000
    7.0424   -2.3057   -1.2172 N   0  0  0  0  0  0  0  0  0  0  0  0
    6.7063   -1.0866   -1.9579 C   0  0  0  0  0  0  0  0  0  0  0  0
    5.7190   -0.1949   -1.1837 C   0  0  0  0  0  0  0  0  0  0  0  0
    4.2990   -0.7754   -1.1581 C   0  0  0  0  0  0  0  0  0  0  0  0
    3.3327    0.1722   -0.4377 C   0  0  0  0  0  0  0  0  0  0  0  0
    1.9053   -0.3933   -0.4366 C   0  0  0  0  0  0  0  0  0  0  0  0
    0.9520    0.5043    0.3788 C   0  0  0  0  0  0  0  0  0  0  0  0
   -0.4581    0.0227    0.3380 N   0  0  0  0  0  0  0  0  0  0  0  0
   -0.6744   -1.0526    1.3431 C   0  0  0  0  0  0  0  0  0  0  0  0
   -1.9966   -1.7397    1.1579 C   0  0  0  0  0  0  0  0  0  0  0  0
   -2.2893   -2.4997    0.0684 N   0  0  0  0  0  0  0  0  0  0  0  0
   -3.5441   -2.9086    0.3254 C   0  0  0  0  0  0  0  0  0  0  0  0
   -4.3471   -3.7376   -0.4559 C   0  0  0  0  0  0  0  0  0  0  0  0
   -5.6360   -4.0418    0.0251 C   0  0  0  0  0  0  0  0  0  0  0  0
   -6.0804   -3.5179    1.2609 C   0  0  0  0  0  0  0  0  0  0  0  0
   -5.2424   -2.6836    2.0263 C   0  0  0  0  0  0  0  0  0  0  0  0
   -3.9755   -2.4053    1.5177 C   0  0  0  0  0  0  0  0  0  0  0  0
   -3.0043   -1.6645    2.0615 N   0  0  0  0  0  0  0  0  0  0  0  0
   -1.4521    1.1397    0.4826 C   0  0  0  0  0  0  0  0  0  0  0  0
   -1.2916    1.9330    1.8097 C   0  0  0  0  0  0  0  0  0  0  0  0
   -2.1962    3.1622    1.8256 C   0  0  0  0  0  0  0  0  0  0  0  0
   -1.7957    4.1366    0.7164 C   0  0  0  0  0  0  0  0  0  0  0  0
   -1.6522    3.4540   -0.6206 C   0  0  0  0  0  0  0  0  0  0  0  0
   -1.7041    4.2317   -1.7884 C   0  0  0  0  0  0  0  0  0  0  0  0
   -1.5929    3.6319   -3.0410 C   0  0  0  0  0  0  0  0  0  0  0  0
   -1.4252    2.2504   -3.1184 C   0  0  0  0  0  0  0  0  0  0  0  0
   -1.3640    1.5038   -1.9796 N   0  0  0  0  0  0  0  0  0  0  0  0
   -1.4547    2.0557   -0.7356 C   0  0  0  0  0  0  0  0  0  0  0  0
    6.2085   -2.9293   -1.1351 H   0  0  0  0  0  0  0  0  0  0  0  0
    7.7885   -2.8215   -1.7362 H   0  0  0  0  0  0  0  0  0  0  0  0
    7.4047   -2.0661   -0.2644 H   0  0  0  0  0  0  0  0  0  0  0  0
    7.6373   -0.5063   -2.1352 H   0  0  0  0  0  0  0  0  0  0  0  0
    6.2869   -1.3538   -2.9537 H   0  0  0  0  0  0  0  0  0  0  0  0
    5.6879    0.7970   -1.6841 H   0  0  0  0  0  0  0  0  0  0  0  0
    6.0865   -0.0386   -0.1458 H   0  0  0  0  0  0  0  0  0  0  0  0
    3.9491   -0.9437   -2.1996 H   0  0  0  0  0  0  0  0  0  0  0  0
    4.3047   -1.7507   -0.6260 H   0  0  0  0  0  0  0  0  0  0  0  0
    3.6748    0.3175    0.6103 H   0  0  0  0  0  0  0  0  0  0  0  0
    3.3329    1.1595   -0.9486 H   0  0  0  0  0  0  0  0  0  0  0  0
    1.5437   -0.4606   -1.4863 H   0  0  0  0  0  0  0  0  0  0  0  0
    1.9209   -1.4151   -0.0037 H   0  0  0  0  0  0  0  0  0  0  0  0
    1.0261    1.5325   -0.0419 H   0  0  0  0  0  0  0  0  0  0  0  0
    1.3184    0.5567    1.4304 H   0  0  0  0  0  0  0  0  0  0  0  0
   -0.6164   -0.4200   -0.5996 H   0  0  0  0  0  0  0  0  0  0  0  0
    0.1030   -1.8392    1.2490 H   0  0  0  0  0  0  0  0  0  0  0  0
   -0.5925   -0.6612    2.3792 H   0  0  0  0  0  0  0  0  0  0  0  0
   -3.9970   -4.1358   -1.3991 H   0  0  0  0  0  0  0  0  0  0  0  0
   -6.2909   -4.6805   -0.5553 H   0  0  0  0  0  0  0  0  0  0  0  0
   -7.0722   -3.7600    1.6209 H   0  0  0  0  0  0  0  0  0  0  0  0
   -5.5718   -2.2842    2.9760 H   0  0  0  0  0  0  0  0  0  0  0  0
   -3.0212   -1.1441    2.9683 H   0  0  0  0  0  0  0  0  0  0  0  0
   -2.4782    0.7091    0.4957 H   0  0  0  0  0  0  0  0  0  0  0  0
   -0.2435    2.2668    1.9510 H   0  0  0  0  0  0  0  0  0  0  0  0
   -1.5709    1.2975    2.6739 H   0  0  0  0  0  0  0  0  0  0  0  0
   -2.1074    3.6679    2.8115 H   0  0  0  0  0  0  0  0  0  0  0  0
   -3.2589    2.8574    1.6925 H   0  0  0  0  0  0  0  0  0  0  0  0
   -2.5759    4.9282    0.6590 H   0  0  0  0  0  0  0  0  0  0  0  0
   -0.8274    4.6211    0.9717 H   0  0  0  0  0  0  0  0  0  0  0  0
   -1.8361    5.3049   -1.7264 H   0  0  0  0  0  0  0  0  0  0  0  0
   -1.6492    4.2313   -3.9430 H   0  0  0  0  0  0  0  0  0  0  0  0
   -1.3444    1.7724   -4.0859 H   0  0  0  0  0  0  0  0  0  0  0  0
  1  2  1  0
  2  3  1  0
  3  4  1  0
  4  5  1  0
  5  6  1  0
  6  7  1  0
  7  8  1  0
  8  9  1  0
  9 10  1  0
 10 11  2  0
 11 12  1  0
 12 13  2  0
 13 14  1  0
 14 15  2  0
 15 16  1  0
 16 17  2  0
 17 18  1  0
  8 19  1  0
 19 20  1  0
 20 21  1  0
 21 22  1  0
 22 23  1  0
 23 24  2  0
 24 25  1  0
 25 26  2  0
 26 27  1  0
 27 28  2  0
 18 10  1  0
 28 19  1  0
 17 12  1  0
 28 23  1  0
  1 29  1  0
  1 30  1  0
  1 31  1  0
  2 32  1  0
  2 33  1  0
  3 34  1  0
  3 35  1  0
  4 36  1  0
  4 37  1  0
  5 38  1  0
  5 39  1  0
  6 40  1  0
  6 41  1  0
  7 42  1  0
  7 43  1  0
  8 44  1  0
  9 45  1  0
  9 46  1  0
 13 47  1  0
 14 48  1  0
 15 49  1  0
 16 50  1  0
 18 51  1  0
 19 52  1  0
 20 53  1  0
 20 54  1  0
 21 55  1  0
 21 56  1  0
 22 57  1  0
 22 58  1  0
 24 59  1  0
 25 60  1  0
 26 61  1  0
M  CHG  2   1   1   8   1
M  END
>  <IX_DELTA_E>  (198)
0.000

>  <IX_CONF_ID>  (198)
1

>  <IX_Q>  (198)
-0.8530
0.3430
-0.1600
-0.1600
-0.1600
-0.1600
0.3430
-0.9590
0.5230
0.0065
-0.5653
0.2272
-0.1500
-0.1500
-0.1500
-0.1500
-0.1516
0.0332
0.5665
-0.1600
-0.1600
-0.0165
-0.1435
-0.1500
-0.1500
0.1600
-0.6200
0.1665
0.4500
0.4500
0.4500
0.0800
0.0800
0.0800
0.0800
0.0800
0.0800
0.0800
0.0800
0.0800
0.0800
0.0800
0.0800
0.4500
0.0800
0.0800
0.1500
0.1500
0.1500
0.1500
0.2700
0.0800
0.0800
0.0800
0.0800
0.0800
0.0800
0.0800
0.1500
0.1500
0.1500

>  <IX_ALOGP>  (198)
-1.95000
-0.20350
0.14410
0.14410
0.14410
0.14410
-0.20350
-1.95000
-0.05160
0.13600
-0.32390
0.29550
0.15810
0.15810
0.15810
0.15810
0.29550
-0.32390
0.11930
0.14410
0.14410
-0.05160
0.13600
0.15810
0.15810
0.15810
-0.32390
0.13600
0.21420
0.21420
0.21420
0.12300
0.12300
0.12300
0.12300
0.12300
0.12300
0.12300
0.12300
0.12300
0.12300
0.12300
0.12300
0.21420
0.12300
0.12300
0.12300
0.12300
0.12300
0.12300
0.21420
0.12300
0.12300
0.12300
0.12300
0.12300
0.12300
0.12300
0.12300
0.12300
0.12300

$$$$
620916
     RDKit          3D

 62 66  0  0  0  0  0  0  0  0999 V2000
   -3.4089    3.2363    1.7778 C   0  0  0  0  0  0  0  0  0  0  0  0
   -2.6172    2.1558    1.1638 N   0  0  0  0  0  0  0  0  0  0  0  0
   -2.7495    2.2059   -0.3110 C   0  0  0  0  0  0  0  0  0  0  0  0
   -1.9014    1.1094   -0.9751 C   0  0  0  0  0  0  0  0  0  0  0  0
   -2.3453   -0.2688   -0.4512 C   0  0  0  0  0  0  0  0  0  0  0  0
   -1.6649   -1.4404   -1.0582 N   0  0  0  0  0  0  0  0  0  0  0  0
   -0.4314   -1.6206   -1.6470 C   0  0  0  0  0  0  0  0  0  0  0  0
    0.6820   -0.6111   -1.7864 C   0  0  0  0  0  0  0  0  0  0  0  0
    1.3715   -0.3386   -0.4991 N   0  0  0  0  0  0  0  0  0  0  0  0
    2.0044   -1.5556    0.0548 C   0  0  0  0  0  0  0  0  0  0  0  0
    2.3153    0.8192   -0.6267 C   0  0  0  0  0  0  0  0  0  0  0  0
    3.6261    0.5064   -1.4146 C   0  0  0  0  0  0  0  0  0  0  0  0
    4.8053    0.1216   -0.5150 C   0  0  0  0  0  0  0  0  0  0  0  0
    5.0986    1.2213    0.4953 C   0  0  0  0  0  0  0  0  0  0  0  0
    3.8681    1.6349    1.2573 C   0  0  0  0  0  0  0  0  0  0  0  0
    4.0109    2.2841    2.4911 C   0  0  0  0  0  0  0  0  0  0  0  0
    2.8921    2.7597    3.1700 C   0  0  0  0  0  0  0  0  0  0  0  0
    1.6308    2.5933    2.6033 C   0  0  0  0  0  0  0  0  0  0  0  0
    1.5001    1.9647    1.4080 N   0  0  0  0  0  0  0  0  0  0  0  0
    2.5696    1.4724    0.7219 C   0  0  0  0  0  0  0  0  0  0  0  0
   -0.2219   -2.8945   -2.0732 N   0  0  0  0  0  0  0  0  0  0  0  0
   -1.3520   -3.5295   -1.7411 C   0  0  0  0  0  0  0  0  0  0  0  0
   -1.6422   -4.8762   -1.9287 C   0  0  0  0  0  0  0  0  0  0  0  0
   -2.8768   -5.3535   -1.4569 C   0  0  0  0  0  0  0  0  0  0  0  0
   -3.7854   -4.4762   -0.8265 C   0  0  0  0  0  0  0  0  0  0  0  0
   -3.4604   -3.1174   -0.6559 C   0  0  0  0  0  0  0  0  0  0  0  0
   -2.2173   -2.6744   -1.1295 C   0  0  0  0  0  0  0  0  0  0  0  0
   -2.2516   -0.3096    1.0825 C   0  0  0  0  0  0  0  0  0  0  0  0
   -3.0594    0.8442    1.6970 C   0  0  0  0  0  0  0  0  0  0  0  0
   -3.3212    3.2027    2.8876 H   0  0  0  0  0  0  0  0  0  0  0  0
   -4.4868    3.1498    1.5067 H   0  0  0  0  0  0  0  0  0  0  0  0
   -3.0357    4.2319    1.4455 H   0  0  0  0  0  0  0  0  0  0  0  0
   -1.6099    2.3099    1.4211 H   0  0  0  0  0  0  0  0  0  0  0  0
   -2.4032    3.1915   -0.6904 H   0  0  0  0  0  0  0  0  0  0  0  0
   -3.8152    2.0910   -0.6158 H   0  0  0  0  0  0  0  0  0  0  0  0
   -2.0250    1.1580   -2.0802 H   0  0  0  0  0  0  0  0  0  0  0  0
   -0.8538    1.3305   -0.7051 H   0  0  0  0  0  0  0  0  0  0  0  0
   -3.4264   -0.3433   -0.7165 H   0  0  0  0  0  0  0  0  0  0  0  0
    1.4092   -1.0221   -2.5246 H   0  0  0  0  0  0  0  0  0  0  0  0
    0.2897    0.3138   -2.2552 H   0  0  0  0  0  0  0  0  0  0  0  0
    0.6330   -0.0671    0.1856 H   0  0  0  0  0  0  0  0  0  0  0  0
    2.6924   -2.0318   -0.6769 H   0  0  0  0  0  0  0  0  0  0  0  0
    1.2315   -2.3043    0.3328 H   0  0  0  0  0  0  0  0  0  0  0  0
    2.5518   -1.3227    0.9934 H   0  0  0  0  0  0  0  0  0  0  0  0
    1.8050    1.6169   -1.2209 H   0  0  0  0  0  0  0  0  0  0  0  0
    3.9170    1.4172   -1.9874 H   0  0  0  0  0  0  0  0  0  0  0  0
    3.4798   -0.2898   -2.1689 H   0  0  0  0  0  0  0  0  0  0  0  0
    5.7069   -0.0349   -1.1446 H   0  0  0  0  0  0  0  0  0  0  0  0
    4.6079   -0.8272    0.0188 H   0  0  0  0  0  0  0  0  0  0  0  0
    5.8781    0.8592    1.2024 H   0  0  0  0  0  0  0  0  0  0  0  0
    5.5014    2.1166   -0.0327 H   0  0  0  0  0  0  0  0  0  0  0  0
    4.9922    2.4374    2.9186 H   0  0  0  0  0  0  0  0  0  0  0  0
    3.0032    3.2528    4.1273 H   0  0  0  0  0  0  0  0  0  0  0  0
    0.7472    2.9548    3.1139 H   0  0  0  0  0  0  0  0  0  0  0  0
   -0.9319   -5.5331   -2.4092 H   0  0  0  0  0  0  0  0  0  0  0  0
   -3.1284   -6.3992   -1.5733 H   0  0  0  0  0  0  0  0  0  0  0  0
   -4.7330   -4.8523   -0.4647 H   0  0  0  0  0  0  0  0  0  0  0  0
   -4.1531   -2.4532   -0.1582 H   0  0  0  0  0  0  0  0  0  0  0  0
   -1.1956   -0.2373    1.4152 H   0  0  0  0  0  0  0  0  0  0  0  0
   -2.6545   -1.2727    1.4607 H   0  0  0  0  0  0  0  0  0  0  0  0
   -4.1446    0.6797    1.4898 H   0  0  0  0  0  0  0  0  0  0  0  0
   -2.9169    0.8150    2.8020 H   0  0  0  0  0  0  0  0  0  0  0  0
  1  2  1  0
  2  3  1  0
  3  4  1  0
  4  5  1  0
  5  6  1  0
  6  7  1  0
  7  8  1  0
  8  9  1  0
  9 10  1  0
  9 11  1  0
 11 12  1  0
 12 13  1  0
 13 14  1  0
 14 15  1  0
 15 16  2  0
 16 17  1  0
 17 18  2  0
 18 19  1  0
 19 20  2  0
  7 21  2  0
 21 22  1  0
 22 23  2  0
 23 24  1  0
 24 25  2  0
 25 26  1  0
 26 27  2  0
  5 28  1  0
 28 29  1  0
 29  2  1  0
 27  6  1  0
 20 11  1  0
 27 22  1  0
 20 15  1  0
  1 30  1  0
  1 31  1  0
  1 32  1  0
  2 33  1  0
  3 34  1  0
  3 35  1  0
  4 36  1  0
  4 37  1  0
  5 38  1  0
  8 39  1  0
  8 40  1  0
  9 41  1  0
 10 42  1  0
 10 43  1  0
 10 44  1  0
 11 45  1  0
 12 46  1  0
 12 47  1  0
 13 48  1  0
 13 49  1  0
 14 50  1  0
 14 51  1  0
 16 52  1  0
 17 53  1  0
 18 54  1  0
 23 55  1  0
 24 56  1  0
 25 57  1  0
 26 58  1  0
 28 59  1  0
 28 60  1  0
 29 61  1  0
 29 62  1  0
M  CHG  2   2   1   9   1
M  END
>  <IX_DELTA_E>  (222)
0.000

>  <IX_CONF_ID>  (222)
1

>  <IX_Q>  (222)
0.2630
-0.9590
0.3430
-0.1600
0.1756
0.0476
0.0065
0.5230
-0.9590
0.2630
0.5665
-0.1600
-0.1600
-0.0165
-0.1435
-0.1500
-0.1500
0.1600
-0.6200
0.1665
-0.5653
0.2272
-0.1500
-0.1500
-0.1500
-0.1500
-0.1516
-0.1600
0.3430
0.0800
0.0800
0.0800
0.4500
0.0800
0.0800
0.0800
0.0800
0.0800
0.0800
0.0800
0.4500
0.0800
0.0800
0.0800
0.0800
0.0800
0.0800
0.0800
0.0800
0.0800
0.0800
0.1500
0.1500
0.1500
0.1500
0.1500
0.1500
0.1500
0.0800
0.0800
0.0800
0.0800

>  <IX_ALOGP>  (222)
-0.20350
-1.95000
-0.20350
0.14410
0.11930
-0.32390
0.13600
-0.05160
-1.95000
-0.20350
0.11930
0.14410
0.14410
-0.05160
0.13600
0.15810
0.15810
0.15810
-0.32390
0.13600
-0.32390
0.29550
0.15810
0.15810
0.15810
0.15810
0.29550
0.14410
-0.20350
0.12300
0.12300
0.12300
0.21420
0.12300
0.12300
0.12300
0.12300
0.12300
0.12300
0.12300
0.21420
0.12300
0.12300
0.12300
0.12300
0.12300
0.12300
0.12300
0.12300
0.12300
0.12300
0.12300
0.12300
0.12300
0.12300
0.12300
0.12300
0.12300
0.12300
0.12300
0.12300
0.12300

$$$$
621104
     RDKit          3D

 53 56  0  0  0  0  0  0  0  0999 V2000
    2.6570    3.7186    0.3526 N   0  0  0  0  0  0  0  0  0  0  0  0
    1.5488    2.9680   -0.2351 C   0  0  0  0  0  0  0  0  0  0  0  0
    0.2404    3.3757    0.4020 C   0  0  0  0  0  0  0  0  0  0  0  0
   -0.5796    2.5594    1.0905 C   0  0  0  0  0  0  0  0  0  0  0  0
   -0.3350    1.0868    1.3390 C   0  0  0  0  0  0  0  0  0  0  0  0
   -0.6450    0.2537    0.1443 N   0  0  0  0  0  0  0  0  0  0  0  0
   -0.0183   -1.0917    0.2618 C   0  0  0  0  0  0  0  0  0  0  0  0
    1.4668   -1.0380    0.0237 C   0  0  0  0  0  0  0  0  0  0  0  0
    2.3809   -1.3046    0.9946 N   0  0  0  0  0  0  0  0  0  0  0  0
    3.5507   -1.1055    0.3609 C   0  0  0  0  0  0  0  0  0  0  0  0
    4.8349   -1.2240    0.8866 C   0  0  0  0  0  0  0  0  0  0  0  0
    5.9181   -0.9472    0.0300 C   0  0  0  0  0  0  0  0  0  0  0  0
    5.6914   -0.5589   -1.3107 C   0  0  0  0  0  0  0  0  0  0  0  0
    4.3798   -0.4516   -1.8100 C   0  0  0  0  0  0  0  0  0  0  0  0
    3.3350   -0.7360   -0.9334 C   0  0  0  0  0  0  0  0  0  0  0  0
    2.0185   -0.6931   -1.1670 N   0  0  0  0  0  0  0  0  0  0  0  0
   -2.1191    0.1821   -0.1391 C   0  0  0  0  0  0  0  0  0  0  0  0
   -2.3578    0.0541   -1.6686 C   0  0  0  0  0  0  0  0  0  0  0  0
   -3.7888   -0.3598   -1.9945 C   0  0  0  0  0  0  0  0  0  0  0  0
   -4.0728   -1.7419   -1.4130 C   0  0  0  0  0  0  0  0  0  0  0  0
   -3.7667   -1.7939    0.0601 C   0  0  0  0  0  0  0  0  0  0  0  0
   -4.4170   -2.7455    0.8587 C   0  0  0  0  0  0  0  0  0  0  0  0
   -4.1998   -2.7723    2.2344 C   0  0  0  0  0  0  0  0  0  0  0  0
   -3.3353   -1.8419    2.8050 C   0  0  0  0  0  0  0  0  0  0  0  0
   -2.6982   -0.9347    2.0201 N   0  0  0  0  0  0  0  0  0  0  0  0
   -2.8583   -0.8932    0.6675 C   0  0  0  0  0  0  0  0  0  0  0  0
    2.7473    3.4754    1.3668 H   0  0  0  0  0  0  0  0  0  0  0  0
    2.4932    4.7474    0.2480 H   0  0  0  0  0  0  0  0  0  0  0  0
    3.5453    3.4652   -0.1394 H   0  0  0  0  0  0  0  0  0  0  0  0
    1.7567    1.8857   -0.1320 H   0  0  0  0  0  0  0  0  0  0  0  0
    1.4895    3.1882   -1.3223 H   0  0  0  0  0  0  0  0  0  0  0  0
   -0.0545    4.4164    0.2998 H   0  0  0  0  0  0  0  0  0  0  0  0
   -1.4775    2.9920    1.5230 H   0  0  0  0  0  0  0  0  0  0  0  0
    0.7168    0.9534    1.6696 H   0  0  0  0  0  0  0  0  0  0  0  0
   -0.9497    0.7778    2.2061 H   0  0  0  0  0  0  0  0  0  0  0  0
   -0.1991    0.7316   -0.6745 H   0  0  0  0  0  0  0  0  0  0  0  0
   -0.4469   -1.7985   -0.4818 H   0  0  0  0  0  0  0  0  0  0  0  0
   -0.2059   -1.5232    1.2705 H   0  0  0  0  0  0  0  0  0  0  0  0
    4.9964   -1.5171    1.9162 H   0  0  0  0  0  0  0  0  0  0  0  0
    6.9309   -1.0282    0.4010 H   0  0  0  0  0  0  0  0  0  0  0  0
    6.5316   -0.3417   -1.9568 H   0  0  0  0  0  0  0  0  0  0  0  0
    4.1917   -0.1549   -2.8337 H   0  0  0  0  0  0  0  0  0  0  0  0
    1.5315   -0.4364   -2.0544 H   0  0  0  0  0  0  0  0  0  0  0  0
   -2.5997    1.1431    0.1508 H   0  0  0  0  0  0  0  0  0  0  0  0
   -1.6615   -0.6894   -2.1132 H   0  0  0  0  0  0  0  0  0  0  0  0
   -2.1471    1.0320   -2.1547 H   0  0  0  0  0  0  0  0  0  0  0  0
   -3.9232   -0.3895   -3.0980 H   0  0  0  0  0  0  0  0  0  0  0  0
   -4.5036    0.3826   -1.5751 H   0  0  0  0  0  0  0  0  0  0  0  0
   -5.1455   -1.9756   -1.5863 H   0  0  0  0  0  0  0  0  0  0  0  0
   -3.4618   -2.5085   -1.9364 H   0  0  0  0  0  0  0  0  0  0  0  0
   -5.1068   -3.4542    0.4176 H   0  0  0  0  0  0  0  0  0  0  0  0
   -4.7099   -3.4979    2.8552 H   0  0  0  0  0  0  0  0  0  0  0  0
   -3.1686   -1.8400    3.8735 H   0  0  0  0  0  0  0  0  0  0  0  0
  1  2  1  0
  2  3  1  0
  3  4  2  0
  4  5  1  0
  5  6  1  0
  6  7  1  0
  7  8  1  0
  8  9  2  0
  9 10  1  0
 10 11  2  0
 11 12  1  0
 12 13  2  0
 13 14  1  0
 14 15  2  0
 15 16  1  0
  6 17  1  0
 17 18  1  0
 18 19  1  0
 19 20  1  0
 20 21  1  0
 21 22  2  0
 22 23  1  0
 23 24  2  0
 24 25  1  0
 25 26  2  0
 16  8  1  0
 26 17  1  0
 15 10  1  0
 26 21  1  0
  1 27  1  0
  1 28  1  0
  1 29  1  0
  2 30  1  0
  2 31  1  0
  3 32  1  0
  4 33  1  0
  5 34  1  0
  5 35  1  0
  6 36  1  0
  7 37  1  0
  7 38  1  0
 11 39  1  0
 12 40  1  0
 13 41  1  0
 14 42  1  0
 16 43  1  0
 17 44  1  0
 18 45  1  0
 18 46  1  0
 19 47  1  0
 19 48  1  0
 20 49  1  0
 20 50  1  0
 22 51  1  0
 23 52  1  0
 24 53  1  0
M  CHG  2   1   1   6   1
M  END
>  <IX_DELTA_E>  (229)
0.000

>  <IX_CONF_ID>  (229)
1

>  <IX_Q>  (229)
-0.8530
0.4812
-0.2882
-0.2882
0.4812
-0.9590
0.5230
0.0065
-0.5653
0.2272
-0.1500
-0.1500
-0.1500
-0.1500
-0.1516
0.0332
0.5665
-0.1600
-0.1600
-0.0165
-0.1435
-0.1500
-0.1500
0.1600
-0.6200
0.1665
0.4500
0.4500
0.4500
0.0800
0.0800
0.1500
0.1500
0.0800
0.0800
0.4500
0.0800
0.0800
0.1500
0.1500
0.1500
0.1500
0.2700
0.0800
0.0800
0.0800
0.0800
0.0800
0.0800
0.0800
0.1500
0.1500
0.1500

>  <IX_ALOGP>  (229)
-1.95000
-0.20350
0.15510
0.15510
-0.20350
-1.95000
-0.05160
0.13600
-0.32390
0.29550
0.15810
0.15810
0.15810
0.15810
0.29550
-0.32390
0.11930
0.14410
0.14410
-0.05160
0.13600
0.15810
0.15810
0.15810
-0.32390
0.13600
0.21420
0.21420
0.21420
0.12300
0.12300
0.12300
0.12300
0.12300
0.12300
0.21420
0.12300
0.12300
0.12300
0.12300
0.12300
0.12300
0.21420
0.12300
0.12300
0.12300
0.12300
0.12300
0.12300
0.12300
0.12300
0.12300
0.12300

$$$$
621263
     RDKit          3D

 61 64  0  0  0  0  0  0  0  0999 V2000
    6.7035    0.1319    1.4054 C   0  0  0  0  0  0  0  0  0  0  0  0
    6.3140    1.0648    0.3312 N   0  0  0  0  0  0  0  0  0  0  0  0
    7.1515    2.2753    0.4085 C   0  0  0  0  0  0  0  0  0  0  0  0
    4.8761    1.4197    0.4230 C   0  0  0  0  0  0  0  0  0  0  0  0
    3.9798    0.3567   -0.2432 C   0  0  0  0  0  0  0  0  0  0  0  0
    2.4939    0.6814   -0.0363 C   0  0  0  0  0  0  0  0  0  0  0  0
    1.5933   -0.3248   -0.7875 C   0  0  0  0  0  0  0  0  0  0  0  0
    0.1632   -0.2353   -0.3717 N   0  0  0  0  0  0  0  0  0  0  0  0
   -0.4798    0.9521   -1.0050 C   0  0  0  0  0  0  0  0  0  0  0  0
   -1.8600    1.2228   -0.4804 C   0  0  0  0  0  0  0  0  0  0  0  0
   -2.9911    1.0243   -1.2111 N   0  0  0  0  0  0  0  0  0  0  0  0
   -3.9626    1.3564   -0.3406 C   0  0  0  0  0  0  0  0  0  0  0  0
   -5.3395    1.3047   -0.5387 C   0  0  0  0  0  0  0  0  0  0  0  0
   -6.1704    1.6709    0.5391 C   0  0  0  0  0  0  0  0  0  0  0  0
   -5.6074    2.0710    1.7749 C   0  0  0  0  0  0  0  0  0  0  0  0
   -4.2110    2.1058    1.9433 C   0  0  0  0  0  0  0  0  0  0  0  0
   -3.4251    1.7405    0.8527 C   0  0  0  0  0  0  0  0  0  0  0  0
   -2.0926    1.6658    0.7803 N   0  0  0  0  0  0  0  0  0  0  0  0
   -0.5348   -1.5467   -0.6138 C   0  0  0  0  0  0  0  0  0  0  0  0
   -0.6911   -1.8926   -2.1184 C   0  0  0  0  0  0  0  0  0  0  0  0
   -1.5543   -3.1394   -2.2975 C   0  0  0  0  0  0  0  0  0  0  0  0
   -2.9791   -2.8669   -1.8082 C   0  0  0  0  0  0  0  0  0  0  0  0
   -2.9962   -2.2712   -0.4198 C   0  0  0  0  0  0  0  0  0  0  0  0
   -4.1723   -2.3347    0.3398 C   0  0  0  0  0  0  0  0  0  0  0  0
   -4.1834   -1.8785    1.6588 C   0  0  0  0  0  0  0  0  0  0  0  0
   -3.0117   -1.3708    2.2133 C   0  0  0  0  0  0  0  0  0  0  0  0
   -1.8855   -1.2851    1.4597 N   0  0  0  0  0  0  0  0  0  0  0  0
   -1.8460   -1.6773    0.1546 C   0  0  0  0  0  0  0  0  0  0  0  0
    6.6028    0.6136    2.4025 H   0  0  0  0  0  0  0  0  0  0  0  0
    7.7599   -0.1914    1.2678 H   0  0  0  0  0  0  0  0  0  0  0  0
    6.0740   -0.7833    1.3926 H   0  0  0  0  0  0  0  0  0  0  0  0
    6.5046    0.6096   -0.5921 H   0  0  0  0  0  0  0  0  0  0  0  0
    6.9599    2.8280    1.3557 H   0  0  0  0  0  0  0  0  0  0  0  0
    8.2312    2.0055    0.3638 H   0  0  0  0  0  0  0  0  0  0  0  0
    6.9442    2.9474   -0.4547 H   0  0  0  0  0  0  0  0  0  0  0  0
    4.6798    2.3833   -0.0989 H   0  0  0  0  0  0  0  0  0  0  0  0
    4.5713    1.5684    1.4829 H   0  0  0  0  0  0  0  0  0  0  0  0
    4.2099    0.3178   -1.3358 H   0  0  0  0  0  0  0  0  0  0  0  0
    4.1855   -0.6434    0.1967 H   0  0  0  0  0  0  0  0  0  0  0  0
    2.2993    1.7115   -0.4090 H   0  0  0  0  0  0  0  0  0  0  0  0
    2.2766    0.6441    1.0582 H   0  0  0  0  0  0  0  0  0  0  0  0
    1.9961   -1.3437   -0.5850 H   0  0  0  0  0  0  0  0  0  0  0  0
    1.6998   -0.1531   -1.8837 H   0  0  0  0  0  0  0  0  0  0  0  0
    0.1610   -0.0737    0.6639 H   0  0  0  0  0  0  0  0  0  0  0  0
   -0.4926    0.8785   -2.1080 H   0  0  0  0  0  0  0  0  0  0  0  0
    0.1085    1.8664   -0.7846 H   0  0  0  0  0  0  0  0  0  0  0  0
   -5.7527    0.9871   -1.4871 H   0  0  0  0  0  0  0  0  0  0  0  0
   -7.2455    1.6436    0.4215 H   0  0  0  0  0  0  0  0  0  0  0  0
   -6.2528    2.3490    2.5971 H   0  0  0  0  0  0  0  0  0  0  0  0
   -3.7641    2.3967    2.8878 H   0  0  0  0  0  0  0  0  0  0  0  0
   -1.3931    1.8762    1.5259 H   0  0  0  0  0  0  0  0  0  0  0  0
    0.0895   -2.3598   -0.1760 H   0  0  0  0  0  0  0  0  0  0  0  0
    0.3111   -2.0781   -2.5636 H   0  0  0  0  0  0  0  0  0  0  0  0
   -1.1733   -1.0718   -2.6869 H   0  0  0  0  0  0  0  0  0  0  0  0
   -1.1145   -3.9887   -1.7284 H   0  0  0  0  0  0  0  0  0  0  0  0
   -1.5797   -3.4222   -3.3710 H   0  0  0  0  0  0  0  0  0  0  0  0
   -3.4941   -2.1753   -2.5103 H   0  0  0  0  0  0  0  0  0  0  0  0
   -3.5324   -3.8312   -1.8087 H   0  0  0  0  0  0  0  0  0  0  0  0
   -5.0690   -2.7660   -0.0826 H   0  0  0  0  0  0  0  0  0  0  0  0
   -5.0860   -1.9361    2.2535 H   0  0  0  0  0  0  0  0  0  0  0  0
   -2.9969   -1.0299    3.2394 H   0  0  0  0  0  0  0  0  0  0  0  0
  1  2  1  0
  2  3  1  0
  2  4  1  0
  4  5  1  0
  5  6  1  0
  6  7  1  0
  7  8  1  0
  8  9  1  0
  9 10  1  0
 10 11  2  0
 11 12  1  0
 12 13  2  0
 13 14  1  0
 14 15  2  0
 15 16  1  0
 16 17  2  0
 17 18  1  0
  8 19  1  0
 19 20  1  0
 20 21  1  0
 21 22  1  0
 22 23  1  0
 23 24  2  0
 24 25  1  0
 25 26  2  0
 26 27  1  0
 27 28  2  0
 18 10  1  0
 28 19  1  0
 17 12  1  0
 28 23  1  0
  1 29  1  0
  1 30  1  0
  1 31  1  0
  2 32  1  0
  3 33  1  0
  3 34  1  0
  3 35  1  0
  4 36  1  0
  4 37  1  0
  5 38  1  0
  5 39  1  0
  6 40  1  0
  6 41  1  0
  7 42  1  0
  7 43  1  0
  8 44  1  0
  9 45  1  0
  9 46  1  0
 13 47  1  0
 14 48  1  0
 15 49  1  0
 16 50  1  0
 18 51  1  0
 19 52  1  0
 20 53  1  0
 20 54  1  0
 21 55  1  0
 21 56  1  0
 22 57  1  0
 22 58  1  0
 24 59  1  0
 25 60  1  0
 26 61  1  0
M  CHG  2   2   1   8   1
M  END
>  <IX_DELTA_E>  (236)
0.000

>  <IX_CONF_ID>  (236)
1

>  <IX_Q>  (236)
0.2630
-0.9590
0.2630
0.3430
-0.1600
-0.1600
0.3430
-0.9590
0.5230
0.0065
-0.5653
0.2272
-0.1500
-0.1500
-0.1500
-0.1500
-0.1516
0.0332
0.5665
-0.1600
-0.1600
-0.0165
-0.1435
-0.1500
-0.1500
0.1600
-0.6200
0.1665
0.0800
0.0800
0.0800
0.4500
0.0800
0.0800
0.0800
0.0800
0.0800
0.0800
0.0800
0.0800
0.0800
0.0800
0.0800
0.4500
0.0800
0.0800
0.1500
0.1500
0.1500
0.1500
0.2700
0.0800
0.0800
0.0800
0.0800
0.0800
0.0800
0.0800
0.1500
0.1500
0.1500

>  <IX_ALOGP>  (236)
-0.20350
-1.95000
-0.20350
-0.20350
0.14410
0.14410
-0.20350
-1.95000
-0.05160
0.13600
-0.32390
0.29550
0.15810
0.15810
0.15810
0.15810
0.29550
-0.32390
0.11930
0.14410
0.14410
-0.05160
0.13600
0.15810
0.15810
0.15810
-0.32390
0.13600
0.12300
0.12300
0.12300
0.21420
0.12300
0.12300
0.12300
0.12300
0.12300
0.12300
0.12300
0.12300
0.12300
0.12300
0.12300
0.21420
0.12300
0.12300
0.12300
0.12300
0.12300
0.12300
0.21420
0.12300
0.12300
0.12300
0.12300
0.12300
0.12300
0.12300
0.12300
0.12300
0.12300

$$$$
65494
     RDKit          3D

 28 29  0  0  0  0  0  0  0  0999 V2000
   -4.8086    0.6416   -0.9328 N   0  0  0  0  0  0  0  0  0  0  0  0
   -3.4557    0.6185   -0.4770 C   0  0  0  0  0  0  0  0  0  0  0  0
   -2.4492    0.0717   -1.2696 C   0  0  0  0  0  0  0  0  0  0  0  0
   -1.1442    0.0685   -0.7831 C   0  0  0  0  0  0  0  0  0  0  0  0
   -0.8522    0.6070    0.4422 N   0  0  0  0  0  0  0  0  0  0  0  0
    0.5347    0.5539    0.9511 C   0  0  1  0  0  0  0  0  0  0  0  0
    0.8458   -0.8287    1.5236 C   0  0  0  0  0  0  0  0  0  0  0  0
    1.8572   -1.3893    0.5706 C   0  0  0  0  0  0  0  0  0  0  0  0
    2.4454   -0.1415   -0.0634 C   0  0  1  0  0  0  0  0  0  0  0  0
    2.9534   -0.4107   -1.4845 C   0  0  0  0  0  0  0  0  0  0  0  0
    3.5201    0.7505   -2.0289 O   0  0  0  0  0  0  0  0  0  0  0  0
    1.4485    0.8527   -0.0859 O   0  0  0  0  0  0  0  0  0  0  0  0
   -1.8689    1.1208    1.2100 C   0  0  0  0  0  0  0  0  0  0  0  0
   -1.6399    1.5890    2.3581 O   0  0  0  0  0  0  0  0  0  0  0  0
   -3.1445    1.1266    0.7422 N   0  0  0  0  0  0  0  0  0  0  0  0
   -5.0685    0.2451   -1.8639 H   0  0  0  0  0  0  0  0  0  0  0  0
   -5.5592    1.0508   -0.3330 H   0  0  0  0  0  0  0  0  0  0  0  0
   -2.6716   -0.3511   -2.2416 H   0  0  0  0  0  0  0  0  0  0  0  0
   -0.3673   -0.3753   -1.3932 H   0  0  0  0  0  0  0  0  0  0  0  0
    0.6863    1.3161    1.7480 H   0  0  0  0  0  0  0  0  0  0  0  0
    1.2963   -0.7286    2.5363 H   0  0  0  0  0  0  0  0  0  0  0  0
   -0.0525   -1.4816    1.5890 H   0  0  0  0  0  0  0  0  0  0  0  0
    1.3408   -2.0207   -0.1876 H   0  0  0  0  0  0  0  0  0  0  0  0
    2.6325   -1.9891    1.0953 H   0  0  0  0  0  0  0  0  0  0  0  0
    3.2942    0.2183    0.5623 H   0  0  0  0  0  0  0  0  0  0  0  0
    2.1072   -0.7263   -2.1321 H   0  0  0  0  0  0  0  0  0  0  0  0
    3.7017   -1.2360   -1.4742 H   0  0  0  0  0  0  0  0  0  0  0  0
    4.4184    0.8476   -1.6188 H   0  0  0  0  0  0  0  0  0  0  0  0
  1  2  1  0
  2  3  1  0
  3  4  2  0
  4  5  1  0
  5  6  1  0
  6  7  1  0
  7  8  1  0
  8  9  1  0
  9 10  1  0
 10 11  1  0
  9 12  1  0
  5 13  1  0
 13 14  2  0
 13 15  1  0
 15  2  2  0
 12  6  1  0
  1 16  1  0
  1 17  1  0
  3 18  1  0
  4 19  1  0
  6 20  1  1
  7 21  1  0
  7 22  1  0
  8 23  1  0
  8 24  1  0
  9 25  1  1
 10 26  1  0
 10 27  1  0
 11 28  1  0
M  END
>  <IX_DELTA_E>  (250)
0.000

>  <IX_CONF_ID>  (250)
1

>  <IX_Q>  (250)
-0.8500
0.4856
-0.1356
-0.0410
-0.4691
0.5001
-0.1600
-0.1600
0.2000
0.1200
-0.6800
-0.5600
0.8410
-0.5700
-0.6610
0.4000
0.4000
0.1500
0.1500
0.0800
0.0800
0.0800
0.0800
0.0800
0.0800
0.0800
0.0800
0.4000

>  <IX_ALOGP>  (250)
-1.01900
-0.27830
0.15510
0.15510
-0.31870
-0.20510
0.14410
0.14410
-0.20510
-0.20350
-0.28930
-0.06840
-0.27830
0.48330
0.18360
0.21420
0.21420
0.12300
0.12300
0.12300
0.12300
0.12300
0.12300
0.12300
0.12300
0.12300
0.12300
-0.26770

$$$$
621036
     RDKit          3D

 59 63  0  0  0  0  0  0  0  0999 V2000
    7.0158   -0.6159   -1.5330 N   0  0  0  0  0  0  0  0  0  0  0  0
    6.0009    0.4339   -1.6321 C   0  0  0  0  0  0  0  0  0  0  0  0
    4.6675   -0.0523   -1.1222 C   0  0  0  0  0  0  0  0  0  0  0  0
    3.5946   -0.2582   -2.0028 C   0  0  0  0  0  0  0  0  0  0  0  0
    2.3579   -0.6959   -1.5188 C   0  0  0  0  0  0  0  0  0  0  0  0
    2.1790   -0.9411   -0.1495 C   0  0  0  0  0  0  0  0  0  0  0  0
    0.8373   -1.4081    0.3660 C   0  0  0  0  0  0  0  0  0  0  0  0
   -0.1620   -0.3026    0.3974 N   0  0  0  0  0  0  0  0  0  0  0  0
    0.1221    0.6062    1.5400 C   0  0  0  0  0  0  0  0  0  0  0  0
   -0.8017    1.7915    1.5802 C   0  0  0  0  0  0  0  0  0  0  0  0
   -1.5989    2.0657    2.6481 N   0  0  0  0  0  0  0  0  0  0  0  0
   -2.2461    3.1756    2.2530 C   0  0  0  0  0  0  0  0  0  0  0  0
   -3.2058    3.8928    2.9591 C   0  0  0  0  0  0  0  0  0  0  0  0
   -3.7593    5.0267    2.3331 C   0  0  0  0  0  0  0  0  0  0  0  0
   -3.3509    5.4015    1.0295 C   0  0  0  0  0  0  0  0  0  0  0  0
   -2.3823    4.6461    0.3435 C   0  0  0  0  0  0  0  0  0  0  0  0
   -1.8508    3.5387    0.9995 C   0  0  0  0  0  0  0  0  0  0  0  0
   -0.9311    2.6744    0.5578 N   0  0  0  0  0  0  0  0  0  0  0  0
   -1.5751   -0.8073    0.3874 C   0  0  0  0  0  0  0  0  0  0  0  0
   -1.9348   -1.6301    1.6548 C   0  0  0  0  0  0  0  0  0  0  0  0
   -3.2679   -2.3530    1.4876 C   0  0  0  0  0  0  0  0  0  0  0  0
   -3.1768   -3.3705    0.3509 C   0  0  0  0  0  0  0  0  0  0  0  0
   -2.6478   -2.7473   -0.9161 C   0  0  0  0  0  0  0  0  0  0  0  0
   -2.8928   -3.3803   -2.1427 C   0  0  0  0  0  0  0  0  0  0  0  0
   -2.4317   -2.8150   -3.3290 C   0  0  0  0  0  0  0  0  0  0  0  0
   -1.7357   -1.6113   -3.2830 C   0  0  0  0  0  0  0  0  0  0  0  0
   -1.4905   -1.0135   -2.0895 N   0  0  0  0  0  0  0  0  0  0  0  0
   -1.8983   -1.5499   -0.9058 C   0  0  0  0  0  0  0  0  0  0  0  0
    3.2479   -0.7268    0.7346 C   0  0  0  0  0  0  0  0  0  0  0  0
    4.4819   -0.2841    0.2519 C   0  0  0  0  0  0  0  0  0  0  0  0
    7.9234   -0.2516   -1.9047 H   0  0  0  0  0  0  0  0  0  0  0  0
    6.7277   -1.4472   -2.0998 H   0  0  0  0  0  0  0  0  0  0  0  0
    7.1511   -0.8985   -0.5348 H   0  0  0  0  0  0  0  0  0  0  0  0
    5.9173    0.7550   -2.6941 H   0  0  0  0  0  0  0  0  0  0  0  0
    6.3199    1.3237   -1.0424 H   0  0  0  0  0  0  0  0  0  0  0  0
    3.7179   -0.0836   -3.0640 H   0  0  0  0  0  0  0  0  0  0  0  0
    1.5392   -0.8474   -2.2126 H   0  0  0  0  0  0  0  0  0  0  0  0
    0.9621   -1.8600    1.3751 H   0  0  0  0  0  0  0  0  0  0  0  0
    0.4992   -2.2370   -0.2937 H   0  0  0  0  0  0  0  0  0  0  0  0
   -0.0395    0.2691   -0.4716 H   0  0  0  0  0  0  0  0  0  0  0  0
    1.1541    1.0086    1.4532 H   0  0  0  0  0  0  0  0  0  0  0  0
    0.0708    0.0570    2.5072 H   0  0  0  0  0  0  0  0  0  0  0  0
   -3.5106    3.5942    3.9534 H   0  0  0  0  0  0  0  0  0  0  0  0
   -4.5096    5.6078    2.8490 H   0  0  0  0  0  0  0  0  0  0  0  0
   -3.7871    6.2730    0.5577 H   0  0  0  0  0  0  0  0  0  0  0  0
   -2.0636    4.9124   -0.6557 H   0  0  0  0  0  0  0  0  0  0  0  0
   -0.4340    2.6772   -0.3631 H   0  0  0  0  0  0  0  0  0  0  0  0
   -2.2687    0.0632    0.3719 H   0  0  0  0  0  0  0  0  0  0  0  0
   -1.1628   -2.3898    1.8827 H   0  0  0  0  0  0  0  0  0  0  0  0
   -2.0214   -0.9526    2.5299 H   0  0  0  0  0  0  0  0  0  0  0  0
   -4.0772   -1.6190    1.2735 H   0  0  0  0  0  0  0  0  0  0  0  0
   -3.5249   -2.8774    2.4336 H   0  0  0  0  0  0  0  0  0  0  0  0
   -4.1926   -3.7865    0.1649 H   0  0  0  0  0  0  0  0  0  0  0  0
   -2.5086   -4.2131    0.6435 H   0  0  0  0  0  0  0  0  0  0  0  0
   -3.4570   -4.3008   -2.1819 H   0  0  0  0  0  0  0  0  0  0  0  0
   -2.6210   -3.2996   -4.2797 H   0  0  0  0  0  0  0  0  0  0  0  0
   -1.3814   -1.1508   -4.1938 H   0  0  0  0  0  0  0  0  0  0  0  0
    3.1213   -0.8967    1.7968 H   0  0  0  0  0  0  0  0  0  0  0  0
    5.2914   -0.1197    0.9490 H   0  0  0  0  0  0  0  0  0  0  0  0
  1  2  1  0
  2  3  1  0
  3  4  2  0
  4  5  1  0
  5  6  2  0
  6  7  1  0
  7  8  1  0
  8  9  1  0
  9 10  1  0
 10 11  2  0
 11 12  1  0
 12 13  2  0
 13 14  1  0
 14 15  2  0
 15 16  1  0
 16 17  2  0
 17 18  1  0
  8 19  1  0
 19 20  1  0
 20 21  1  0
 21 22  1  0
 22 23  1  0
 23 24  2  0
 24 25  1  0
 25 26  2  0
 26 27  1  0
 27 28  2  0
  6 29  1  0
 29 30  2  0
 30  3  1  0
 18 10  1  0
 28 19  1  0
 17 12  1  0
 28 23  1  0
  1 31  1  0
  1 32  1  0
  1 33  1  0
  2 34  1  0
  2 35  1  0
  4 36  1  0
  5 37  1  0
  7 38  1  0
  7 39  1  0
  8 40  1  0
  9 41  1  0
  9 42  1  0
 13 43  1  0
 14 44  1  0
 15 45  1  0
 16 46  1  0
 18 47  1  0
 19 48  1  0
 20 49  1  0
 20 50  1  0
 21 51  1  0
 21 52  1  0
 22 53  1  0
 22 54  1  0
 24 55  1  0
 25 56  1  0
 26 57  1  0
 29 58  1  0
 30 59  1  0
M  CHG  2   1   1   8   1
M  END
>  <IX_DELTA_E>  (253)
0.000

>  <IX_CONF_ID>  (253)
1

>  <IX_Q>  (253)
-0.8530
0.4865
-0.1435
-0.1500
-0.1500
-0.1435
0.4865
-0.9590
0.5230
0.0065
-0.5653
0.2272
-0.1500
-0.1500
-0.1500
-0.1500
-0.1516
0.0332
0.5665
-0.1600
-0.1600
-0.0165
-0.1435
-0.1500
-0.1500
0.1600
-0.6200
0.1665
-0.1500
-0.1500
0.4500
0.4500
0.4500
0.0800
0.0800
0.1500
0.1500
0.0800
0.0800
0.4500
0.0800
0.0800
0.1500
0.1500
0.1500
0.1500
0.2700
0.0800
0.0800
0.0800
0.0800
0.0800
0.0800
0.0800
0.1500
0.1500
0.1500
0.1500
0.1500

>  <IX_ALOGP>  (253)
-1.95000
-0.05160
0.13600
0.15810
0.15810
0.13600
-0.05160
-1.95000
-0.05160
0.13600
-0.32390
0.29550
0.15810
0.15810
0.15810
0.15810
0.29550
-0.32390
0.11930
0.14410
0.14410
-0.05160
0.13600
0.15810
0.15810
0.15810
-0.32390
0.13600
0.15810
0.15810
0.21420
0.21420
0.21420
0.12300
0.12300
0.12300
0.12300
0.12300
0.12300
0.21420
0.12300
0.12300
0.12300
0.12300
0.12300
0.12300
0.21420
0.12300
0.12300
0.12300
0.12300
0.12300
0.12300
0.12300
0.12300
0.12300
0.12300
0.12300
0.12300

$$$$
621105
     RDKit          3D

 53 56  0  0  0  0  0  0  0  0999 V2000
   -0.5345    4.0055    2.3712 N   0  0  0  0  0  0  0  0  0  0  0  0
    0.2638    4.2920    1.1831 C   0  0  0  0  0  0  0  0  0  0  0  0
    0.6541    3.0132    0.4942 C   0  0  0  0  0  0  0  0  0  0  0  0
    0.2346    2.7313   -0.7474 C   0  0  0  0  0  0  0  0  0  0  0  0
    0.5412    1.4090   -1.4035 C   0  0  0  0  0  0  0  0  0  0  0  0
   -0.0895    0.2552   -0.7016 N   0  0  0  0  0  0  0  0  0  0  0  0
    0.3403   -1.0221   -1.3317 C   0  0  0  0  0  0  0  0  0  0  0  0
    1.7160   -1.4304   -0.8846 C   0  0  0  0  0  0  0  0  0  0  0  0
    1.9478   -2.0435    0.3051 N   0  0  0  0  0  0  0  0  0  0  0  0
    3.2810   -2.2068    0.2983 C   0  0  0  0  0  0  0  0  0  0  0  0
    4.0693   -2.7903    1.2837 C   0  0  0  0  0  0  0  0  0  0  0  0
    5.4578   -2.8457    1.0593 C   0  0  0  0  0  0  0  0  0  0  0  0
    6.0128   -2.3215   -0.1330 C   0  0  0  0  0  0  0  0  0  0  0  0
    5.1850   -1.7431   -1.1121 C   0  0  0  0  0  0  0  0  0  0  0  0
    3.8167   -1.7109   -0.8554 C   0  0  0  0  0  0  0  0  0  0  0  0
    2.8375   -1.2132   -1.6173 N   0  0  0  0  0  0  0  0  0  0  0  0
   -1.5821    0.3678   -0.6053 C   0  0  0  0  0  0  0  0  0  0  0  0
   -2.3029    0.1930   -1.9632 C   0  0  0  0  0  0  0  0  0  0  0  0
   -3.8019    0.4291   -1.7814 C   0  0  0  0  0  0  0  0  0  0  0  0
   -4.4366   -0.5622   -0.7896 C   0  0  0  0  0  0  0  0  0  0  0  0
   -3.5381   -0.9539    0.3633 C   0  0  0  0  0  0  0  0  0  0  0  0
   -4.0596   -1.7627    1.3817 C   0  0  0  0  0  0  0  0  0  0  0  0
   -3.2511   -2.1759    2.4382 C   0  0  0  0  0  0  0  0  0  0  0  0
   -1.9153   -1.7814    2.4695 C   0  0  0  0  0  0  0  0  0  0  0  0
   -1.4188   -0.9917    1.4847 N   0  0  0  0  0  0  0  0  0  0  0  0
   -2.1767   -0.5772    0.4287 C   0  0  0  0  0  0  0  0  0  0  0  0
    0.0199    3.4200    3.0416 H   0  0  0  0  0  0  0  0  0  0  0  0
   -1.4098    3.4976    2.0989 H   0  0  0  0  0  0  0  0  0  0  0  0
   -0.7902    4.9087    2.8323 H   0  0  0  0  0  0  0  0  0  0  0  0
   -0.3166    4.9546    0.5027 H   0  0  0  0  0  0  0  0  0  0  0  0
    1.1840    4.8375    1.4768 H   0  0  0  0  0  0  0  0  0  0  0  0
    1.2666    2.2974    1.0391 H   0  0  0  0  0  0  0  0  0  0  0  0
   -0.3663    3.4493   -1.2991 H   0  0  0  0  0  0  0  0  0  0  0  0
    0.2256    1.4544   -2.4664 H   0  0  0  0  0  0  0  0  0  0  0  0
    1.6460    1.2938   -1.4053 H   0  0  0  0  0  0  0  0  0  0  0  0
    0.2862    0.2724    0.2743 H   0  0  0  0  0  0  0  0  0  0  0  0
   -0.3493   -1.8519   -1.0726 H   0  0  0  0  0  0  0  0  0  0  0  0
    0.3249   -0.9422   -2.4386 H   0  0  0  0  0  0  0  0  0  0  0  0
    3.6306   -3.1845    2.1916 H   0  0  0  0  0  0  0  0  0  0  0  0
    6.1071   -3.2861    1.8029 H   0  0  0  0  0  0  0  0  0  0  0  0
    7.0822   -2.3651   -0.2865 H   0  0  0  0  0  0  0  0  0  0  0  0
    5.5972   -1.3256   -2.0181 H   0  0  0  0  0  0  0  0  0  0  0  0
    2.9172   -0.7541   -2.5508 H   0  0  0  0  0  0  0  0  0  0  0  0
   -1.8414    1.3807   -0.2262 H   0  0  0  0  0  0  0  0  0  0  0  0
   -1.9253    0.9258   -2.7069 H   0  0  0  0  0  0  0  0  0  0  0  0
   -2.1404   -0.8255   -2.3736 H   0  0  0  0  0  0  0  0  0  0  0  0
   -4.3174    0.3419   -2.7635 H   0  0  0  0  0  0  0  0  0  0  0  0
   -3.9577    1.4694   -1.4256 H   0  0  0  0  0  0  0  0  0  0  0  0
   -5.3602   -0.0888   -0.3826 H   0  0  0  0  0  0  0  0  0  0  0  0
   -4.7368   -1.4821   -1.3362 H   0  0  0  0  0  0  0  0  0  0  0  0
   -5.0963   -2.0712    1.3519 H   0  0  0  0  0  0  0  0  0  0  0  0
   -3.6551   -2.7944    3.2273 H   0  0  0  0  0  0  0  0  0  0  0  0
   -1.2753   -2.0956    3.2778 H   0  0  0  0  0  0  0  0  0  0  0  0
  1  2  1  0
  2  3  1  0
  3  4  2  0
  4  5  1  0
  5  6  1  0
  6  7  1  0
  7  8  1  0
  8  9  2  0
  9 10  1  0
 10 11  2  0
 11 12  1  0
 12 13  2  0
 13 14  1  0
 14 15  2  0
 15 16  1  0
  6 17  1  0
 17 18  1  0
 18 19  1  0
 19 20  1  0
 20 21  1  0
 21 22  2  0
 22 23  1  0
 23 24  2  0
 24 25  1  0
 25 26  2  0
 16  8  1  0
 26 17  1  0
 15 10  1  0
 26 21  1  0
  1 27  1  0
  1 28  1  0
  1 29  1  0
  2 30  1  0
  2 31  1  0
  3 32  1  0
  4 33  1  0
  5 34  1  0
  5 35  1  0
  6 36  1  0
  7 37  1  0
  7 38  1  0
 11 39  1  0
 12 40  1  0
 13 41  1  0
 14 42  1  0
 16 43  1  0
 17 44  1  0
 18 45  1  0
 18 46  1  0
 19 47  1  0
 19 48  1  0
 20 49  1  0
 20 50  1  0
 22 51  1  0
 23 52  1  0
 24 53  1  0
M  CHG  2   1   1   6   1
M  END
>  <IX_DELTA_E>  (263)
0.000

>  <IX_CONF_ID>  (263)
1

>  <IX_Q>  (263)
-0.8530
0.4812
-0.2882
-0.2882
0.4812
-0.9590
0.5230
0.0065
-0.5653
0.2272
-0.1500
-0.1500
-0.1500
-0.1500
-0.1516
0.0332
0.5665
-0.1600
-0.1600
-0.0165
-0.1435
-0.1500
-0.1500
0.1600
-0.6200
0.1665
0.4500
0.4500
0.4500
0.0800
0.0800
0.1500
0.1500
0.0800
0.0800
0.4500
0.0800
0.0800
0.1500
0.1500
0.1500
0.1500
0.2700
0.0800
0.0800
0.0800
0.0800
0.0800
0.0800
0.0800
0.1500
0.1500
0.1500

>  <IX_ALOGP>  (263)
-1.95000
-0.20350
0.15510
0.15510
-0.20350
-1.95000
-0.05160
0.13600
-0.32390
0.29550
0.15810
0.15810
0.15810
0.15810
0.29550
-0.32390
0.11930
0.14410
0.14410
-0.05160
0.13600
0.15810
0.15810
0.15810
-0.32390
0.13600
0.21420
0.21420
0.21420
0.12300
0.12300
0.12300
0.12300
0.12300
0.12300
0.21420
0.12300
0.12300
0.12300
0.12300
0.12300
0.12300
0.21420
0.12300
0.12300
0.12300
0.12300
0.12300
0.12300
0.12300
0.12300
0.12300
0.12300

$$$$
454386
     RDKit          3D

 52 55  0  0  0  0  0  0  0  0999 V2000
    1.9795    2.0903   -1.5316 C   0  0  0  0  0  0  0  0  0  0  0  0
    2.3849    1.3786   -0.4773 C   0  0  0  0  0  0  0  0  0  0  0  0
    2.4896    1.9304    0.9186 C   0  0  0  0  0  0  0  0  0  0  0  0
    0.8759    2.0350    1.7898 S   0  0  0  0  0  0  0  0  0  0  0  0
    0.1692    0.4945    1.1656 C   0  0  0  0  0  0  0  0  0  0  0  0
   -0.7490    0.4972    0.2406 N   0  0  0  0  0  0  0  0  0  0  0  0
   -1.3988    1.6757   -0.3331 C   0  0  0  0  0  0  0  0  0  0  0  0
   -2.4962    2.1813    0.6235 C   0  0  0  0  0  0  0  0  0  0  0  0
   -3.2794    3.3465    0.0078 C   0  0  0  0  0  0  0  0  0  0  0  0
   -3.8743    2.9520   -1.3506 C   0  0  0  0  0  0  0  0  0  0  0  0
   -2.7789    2.4659   -2.3055 C   0  0  0  0  0  0  0  0  0  0  0  0
   -2.0055    1.2918   -1.6925 C   0  0  0  0  0  0  0  0  0  0  0  0
    0.6624   -0.7547    1.6714 N   0  0  0  0  0  0  0  0  0  0  0  0
    0.1807   -2.0426    1.1554 C   0  0  0  0  0  0  0  0  0  0  0  0
   -1.2605   -2.3154    1.5857 C   0  0  0  0  0  0  0  0  0  0  0  0
   -1.3636   -3.8220    1.8269 C   0  0  0  0  0  0  0  0  0  0  0  0
    0.0307   -4.4003    1.6121 C   0  0  0  0  0  0  0  0  0  0  0  0
    0.9842   -3.2211    1.6911 C   0  0  0  0  0  0  0  0  0  0  0  0
    2.6044    0.0046   -0.7668 N   0  0  0  0  0  0  0  0  0  0  0  0
    3.6690   -0.8513   -0.2795 C   0  0  0  0  0  0  0  0  0  0  0  0
    4.0114   -1.7158   -1.5094 C   0  0  0  0  0  0  0  0  0  0  0  0
    3.2654   -1.1128   -2.6129 N   0  0  0  0  0  0  0  0  0  0  0  0
    2.4691   -0.2220   -2.1364 C   0  0  0  0  0  0  0  0  0  0  0  0
    1.8060    1.1459   -3.0666 S   0  0  0  0  0  0  0  0  0  0  0  0
    1.7387    3.1445   -1.4707 H   0  0  0  0  0  0  0  0  0  0  0  0
    3.1704    1.2952    1.5217 H   0  0  0  0  0  0  0  0  0  0  0  0
    2.9309    2.9484    0.8805 H   0  0  0  0  0  0  0  0  0  0  0  0
   -0.6529    2.4832   -0.4998 H   0  0  0  0  0  0  0  0  0  0  0  0
   -2.0354    2.5252    1.5737 H   0  0  0  0  0  0  0  0  0  0  0  0
   -3.2005    1.3533    0.8635 H   0  0  0  0  0  0  0  0  0  0  0  0
   -2.6096    4.2265   -0.1115 H   0  0  0  0  0  0  0  0  0  0  0  0
   -4.1012    3.6390    0.6956 H   0  0  0  0  0  0  0  0  0  0  0  0
   -4.6295    2.1464   -1.2135 H   0  0  0  0  0  0  0  0  0  0  0  0
   -4.3906    3.8292   -1.7954 H   0  0  0  0  0  0  0  0  0  0  0  0
   -2.0811    3.3054   -2.5246 H   0  0  0  0  0  0  0  0  0  0  0  0
   -3.2409    2.1378   -3.2621 H   0  0  0  0  0  0  0  0  0  0  0  0
   -1.1943    0.9898   -2.3877 H   0  0  0  0  0  0  0  0  0  0  0  0
   -2.6865    0.4199   -1.5737 H   0  0  0  0  0  0  0  0  0  0  0  0
    1.4293   -0.7292    2.3819 H   0  0  0  0  0  0  0  0  0  0  0  0
    0.2465   -2.0490    0.0429 H   0  0  0  0  0  0  0  0  0  0  0  0
   -1.9741   -1.9899    0.7961 H   0  0  0  0  0  0  0  0  0  0  0  0
   -1.4946   -1.7692    2.5276 H   0  0  0  0  0  0  0  0  0  0  0  0
   -2.0922   -4.2865    1.1264 H   0  0  0  0  0  0  0  0  0  0  0  0
   -1.6943   -4.0172    2.8694 H   0  0  0  0  0  0  0  0  0  0  0  0
    0.2769   -5.1705    2.3757 H   0  0  0  0  0  0  0  0  0  0  0  0
    0.0904   -4.8569    0.5991 H   0  0  0  0  0  0  0  0  0  0  0  0
    1.2662   -3.0536    2.7551 H   0  0  0  0  0  0  0  0  0  0  0  0
    1.8990   -3.4033    1.0850 H   0  0  0  0  0  0  0  0  0  0  0  0
    4.5464   -0.2381    0.0228 H   0  0  0  0  0  0  0  0  0  0  0  0
    3.3166   -1.4667    0.5742 H   0  0  0  0  0  0  0  0  0  0  0  0
    3.6884   -2.7712   -1.3643 H   0  0  0  0  0  0  0  0  0  0  0  0
    5.1021   -1.6745   -1.7259 H   0  0  0  0  0  0  0  0  0  0  0  0
  1  2  2  0
  2  3  1  0
  3  4  1  0
  4  5  1  0
  5  6  2  0
  6  7  1  0
  7  8  1  0
  8  9  1  0
  9 10  1  0
 10 11  1  0
 11 12  1  0
  5 13  1  0
 13 14  1  0
 14 15  1  0
 15 16  1  0
 16 17  1  0
 17 18  1  0
  2 19  1  0
 19 20  1  0
 20 21  1  0
 21 22  1  0
 22 23  2  0
 23 24  1  0
 24  1  1  0
 12  7  1  0
 18 14  1  0
 23 19  1  0
  1 25  1  0
  3 26  1  0
  3 27  1  0
  7 28  1  0
  8 29  1  0
  8 30  1  0
  9 31  1  0
  9 32  1  0
 10 33  1  0
 10 34  1  0
 11 35  1  0
 11 36  1  0
 12 37  1  0
 12 38  1  0
 13 39  1  0
 14 40  1  0
 15 41  1  0
 15 42  1  0
 16 43  1  0
 16 44  1  0
 17 45  1  0
 17 46  1  0
 18 47  1  0
 18 48  1  0
 20 49  1  0
 20 50  1  0
 21 51  1  0
 21 52  1  0
M  END
>  <IX_DELTA_E>  (278)
0.000

>  <IX_CONF_ID>  (278)
1

>  <IX_Q>  (278)
-0.0490
-0.0382
0.2082
-0.3710
0.6410
-0.6960
0.1660
-0.1600
-0.1600
-0.1600
-0.1600
-0.1600
-0.8191
0.2891
-0.1600
-0.1600
-0.1600
-0.1600
-0.5191
0.2091
0.0860
-0.6960
0.6410
-0.2420
0.1500
0.0800
0.0800
0.0800
0.0800
0.0800
0.0800
0.0800
0.0800
0.0800
0.0800
0.0800
0.0800
0.0800
0.4000
0.0800
0.0800
0.0800
0.0800
0.0800
0.0800
0.0800
0.0800
0.0800
0.0800
0.0800
0.0800
0.0800

>  <IX_ALOGP>  (278)
0.15510
0.15510
-0.20350
0.64820
-0.27830
0.18360
-0.20510
0.14410
0.14410
0.14410
0.14410
0.14410
-0.70960
-0.20510
0.14410
0.14410
0.14410
0.14410
-0.31870
-0.20350
-0.20350
0.18360
-0.27830
0.64820
0.12300
0.12300
0.12300
0.12300
0.12300
0.12300
0.12300
0.12300
0.12300
0.12300
0.12300
0.12300
0.12300
0.12300
0.21420
0.12300
0.12300
0.12300
0.12300
0.12300
0.12300
0.12300
0.12300
0.12300
0.12300
0.12300
0.12300
0.12300

$$$$
621264
     RDKit          3D

 58 61  0  0  0  0  0  0  0  0999 V2000
    7.2491    1.0522   -0.5294 C   0  0  0  0  0  0  0  0  0  0  0  0
    6.0806    0.2936   -0.9827 N   0  0  0  0  0  0  0  0  0  0  0  0
    4.8564    0.7964   -0.3439 C   0  0  0  0  0  0  0  0  0  0  0  0
    3.6252    0.0404   -0.8629 C   0  0  0  0  0  0  0  0  0  0  0  0
    2.3400    0.5467   -0.1904 C   0  0  0  0  0  0  0  0  0  0  0  0
    1.0963   -0.1012   -0.8295 C   0  0  0  0  0  0  0  0  0  0  0  0
   -0.1699    0.2949   -0.1464 N   0  0  0  0  0  0  0  0  0  0  0  0
   -0.6201    1.6299   -0.6311 C   0  0  0  0  0  0  0  0  0  0  0  0
   -1.8844    2.0975    0.0375 C   0  0  0  0  0  0  0  0  0  0  0  0
   -3.0174    2.3946   -0.6538 N   0  0  0  0  0  0  0  0  0  0  0  0
   -3.8879    2.7106    0.3226 C   0  0  0  0  0  0  0  0  0  0  0  0
   -5.2248    3.0834    0.1877 C   0  0  0  0  0  0  0  0  0  0  0  0
   -5.9518    3.3474    1.3622 C   0  0  0  0  0  0  0  0  0  0  0  0
   -5.3319    3.2258    2.6280 C   0  0  0  0  0  0  0  0  0  0  0  0
   -3.9788    2.8482    2.7282 C   0  0  0  0  0  0  0  0  0  0  0  0
   -3.2907    2.6034    1.5425 C   0  0  0  0  0  0  0  0  0  0  0  0
   -2.0184    2.2198    1.3810 N   0  0  0  0  0  0  0  0  0  0  0  0
   -1.2317   -0.7590   -0.2669 C   0  0  0  0  0  0  0  0  0  0  0  0
   -1.6847   -0.9878   -1.7335 C   0  0  0  0  0  0  0  0  0  0  0  0
   -2.5709   -2.2234   -1.8467 C   0  0  0  0  0  0  0  0  0  0  0  0
   -1.7838   -3.4779   -1.4683 C   0  0  0  0  0  0  0  0  0  0  0  0
   -1.0647   -3.3233   -0.1527 C   0  0  0  0  0  0  0  0  0  0  0  0
   -0.6246   -4.4685    0.5233 C   0  0  0  0  0  0  0  0  0  0  0  0
    0.0061   -4.3542    1.7609 C   0  0  0  0  0  0  0  0  0  0  0  0
    0.1841   -3.0934    2.3216 C   0  0  0  0  0  0  0  0  0  0  0  0
   -0.2312   -1.9874    1.6530 N   0  0  0  0  0  0  0  0  0  0  0  0
   -0.8218   -2.0556    0.4261 C   0  0  0  0  0  0  0  0  0  0  0  0
    7.1271    2.1321   -0.7635 H   0  0  0  0  0  0  0  0  0  0  0  0
    7.3972    0.9260    0.5678 H   0  0  0  0  0  0  0  0  0  0  0  0
    8.1597    0.6829   -1.0502 H   0  0  0  0  0  0  0  0  0  0  0  0
    6.2188   -0.7166   -0.7376 H   0  0  0  0  0  0  0  0  0  0  0  0
    6.0003    0.3909   -2.0231 H   0  0  0  0  0  0  0  0  0  0  0  0
    4.9308    0.6663    0.7608 H   0  0  0  0  0  0  0  0  0  0  0  0
    4.7289    1.8821   -0.5665 H   0  0  0  0  0  0  0  0  0  0  0  0
    3.5492    0.1829   -1.9675 H   0  0  0  0  0  0  0  0  0  0  0  0
    3.7486   -1.0482   -0.6548 H   0  0  0  0  0  0  0  0  0  0  0  0
    2.3786    0.2971    0.8931 H   0  0  0  0  0  0  0  0  0  0  0  0
    2.2837    1.6486   -0.2991 H   0  0  0  0  0  0  0  0  0  0  0  0
    1.0674    0.1695   -1.9093 H   0  0  0  0  0  0  0  0  0  0  0  0
    1.2419   -1.2015   -0.7895 H   0  0  0  0  0  0  0  0  0  0  0  0
    0.0338    0.4101    0.8750 H   0  0  0  0  0  0  0  0  0  0  0  0
    0.1563    2.3940   -0.4143 H   0  0  0  0  0  0  0  0  0  0  0  0
   -0.7663    1.6279   -1.7334 H   0  0  0  0  0  0  0  0  0  0  0  0
   -5.6884    3.1721   -0.7884 H   0  0  0  0  0  0  0  0  0  0  0  0
   -6.9949    3.6333    1.2971 H   0  0  0  0  0  0  0  0  0  0  0  0
   -5.9019    3.4219    3.5254 H   0  0  0  0  0  0  0  0  0  0  0  0
   -3.4956    2.7513    3.6897 H   0  0  0  0  0  0  0  0  0  0  0  0
   -1.3045    2.0388    2.1186 H   0  0  0  0  0  0  0  0  0  0  0  0
   -2.1310   -0.4290    0.2976 H   0  0  0  0  0  0  0  0  0  0  0  0
   -0.8155   -1.1163   -2.4109 H   0  0  0  0  0  0  0  0  0  0  0  0
   -2.2660   -0.1120   -2.0890 H   0  0  0  0  0  0  0  0  0  0  0  0
   -2.9365   -2.3206   -2.8910 H   0  0  0  0  0  0  0  0  0  0  0  0
   -3.4543   -2.1152   -1.1807 H   0  0  0  0  0  0  0  0  0  0  0  0
   -2.4994   -4.3274   -1.4079 H   0  0  0  0  0  0  0  0  0  0  0  0
   -1.0374   -3.7122   -2.2565 H   0  0  0  0  0  0  0  0  0  0  0  0
   -0.7786   -5.4529    0.0952 H   0  0  0  0  0  0  0  0  0  0  0  0
    0.3437   -5.2372    2.2875 H   0  0  0  0  0  0  0  0  0  0  0  0
    0.6559   -2.9918    3.2894 H   0  0  0  0  0  0  0  0  0  0  0  0
  1  2  1  0
  2  3  1  0
  3  4  1  0
  4  5  1  0
  5  6  1  0
  6  7  1  0
  7  8  1  0
  8  9  1  0
  9 10  2  0
 10 11  1  0
 11 12  2  0
 12 13  1  0
 13 14  2  0
 14 15  1  0
 15 16  2  0
 16 17  1  0
  7 18  1  0
 18 19  1  0
 19 20  1  0
 20 21  1  0
 21 22  1  0
 22 23  2  0
 23 24  1  0
 24 25  2  0
 25 26  1  0
 26 27  2  0
 17  9  1  0
 27 18  1  0
 16 11  1  0
 27 22  1  0
  1 28  1  0
  1 29  1  0
  1 30  1  0
  2 31  1  0
  2 32  1  0
  3 33  1  0
  3 34  1  0
  4 35  1  0
  4 36  1  0
  5 37  1  0
  5 38  1  0
  6 39  1  0
  6 40  1  0
  7 41  1  0
  8 42  1  0
  8 43  1  0
 12 44  1  0
 13 45  1  0
 14 46  1  0
 15 47  1  0
 17 48  1  0
 18 49  1  0
 19 50  1  0
 19 51  1  0
 20 52  1  0
 20 53  1  0
 21 54  1  0
 21 55  1  0
 23 56  1  0
 24 57  1  0
 25 58  1  0
M  CHG  2   2   1   7   1
M  END
>  <IX_DELTA_E>  (283)
0.000

>  <IX_CONF_ID>  (283)
1

>  <IX_Q>  (283)
0.2630
-0.9060
0.3430
-0.1600
-0.1600
0.3430
-0.9590
0.5230
0.0065
-0.5653
0.2272
-0.1500
-0.1500
-0.1500
-0.1500
-0.1516
0.0332
0.5665
-0.1600
-0.1600
-0.0165
-0.1435
-0.1500
-0.1500
0.1600
-0.6200
0.1665
0.0800
0.0800
0.0800
0.4500
0.4500
0.0800
0.0800
0.0800
0.0800
0.0800
0.0800
0.0800
0.0800
0.4500
0.0800
0.0800
0.1500
0.1500
0.1500
0.1500
0.2700
0.0800
0.0800
0.0800
0.0800
0.0800
0.0800
0.0800
0.1500
0.1500
0.1500

>  <IX_ALOGP>  (283)
-0.20350
-1.95000
-0.20350
0.14410
0.14410
-0.20350
-1.95000
-0.05160
0.13600
-0.32390
0.29550
0.15810
0.15810
0.15810
0.15810
0.29550
-0.32390
0.11930
0.14410
0.14410
-0.05160
0.13600
0.15810
0.15810
0.15810
-0.32390
0.13600
0.12300
0.12300
0.12300
0.21420
0.21420
0.12300
0.12300
0.12300
0.12300
0.12300
0.12300
0.12300
0.12300
0.21420
0.12300
0.12300
0.12300
0.12300
0.12300
0.12300
0.21420
0.12300
0.12300
0.12300
0.12300
0.12300
0.12300
0.12300
0.12300
0.12300
0.12300

$$$$
621972
     RDKit          3D

 71 76  0  0  0  0  0  0  0  0999 V2000
   10.3933    1.5711   -0.4464 C   0  0  0  0  0  0  0  0  0  0  0  0
    9.8183    0.3453   -0.7885 C   0  0  0  0  0  0  0  0  0  0  0  0
    8.5342    0.3095   -1.3381 C   0  0  0  0  0  0  0  0  0  0  0  0
    7.8393    1.5120   -1.5380 C   0  0  0  0  0  0  0  0  0  0  0  0
    6.4632    1.5123   -2.1383 C   0  0  0  0  0  0  0  0  0  0  0  0
    5.4558    1.0934   -1.1532 N   0  0  0  0  0  0  0  0  0  0  0  0
    4.1142    1.1263   -1.7536 C   0  0  0  0  0  0  0  0  0  0  0  0
    3.0709    0.6712   -0.7657 C   0  0  0  0  0  0  0  0  0  0  0  0
    2.5181   -0.6151   -0.8624 C   0  0  0  0  0  0  0  0  0  0  0  0
    1.5097   -1.0167    0.0151 C   0  0  0  0  0  0  0  0  0  0  0  0
    1.0293   -0.1376    0.9985 C   0  0  0  0  0  0  0  0  0  0  0  0
   -0.1235   -0.5636    1.8809 C   0  0  0  0  0  0  0  0  0  0  0  0
   -1.4174   -0.5399    1.1394 N   0  0  0  0  0  0  0  0  0  0  0  0
   -1.9937    0.8349    1.1881 C   0  0  0  0  0  0  0  0  0  0  0  0
   -3.1152    1.0298    0.2111 C   0  0  0  0  0  0  0  0  0  0  0  0
   -4.4210    1.0996    0.5887 N   0  0  0  0  0  0  0  0  0  0  0  0
   -5.0612    1.1865   -0.5914 C   0  0  0  0  0  0  0  0  0  0  0  0
   -6.4359    1.2146   -0.8130 C   0  0  0  0  0  0  0  0  0  0  0  0
   -6.8809    1.2434   -2.1508 C   0  0  0  0  0  0  0  0  0  0  0  0
   -5.9510    1.2411   -3.2160 C   0  0  0  0  0  0  0  0  0  0  0  0
   -4.5684    1.2070   -2.9550 C   0  0  0  0  0  0  0  0  0  0  0  0
   -4.1666    1.1810   -1.6208 C   0  0  0  0  0  0  0  0  0  0  0  0
   -2.9271    1.0874   -1.1282 N   0  0  0  0  0  0  0  0  0  0  0  0
   -2.3285   -1.6388    1.6148 C   0  0  0  0  0  0  0  0  0  0  0  0
   -2.8328   -1.4426    3.0687 C   0  0  0  0  0  0  0  0  0  0  0  0
   -3.8314   -2.5356    3.4357 C   0  0  0  0  0  0  0  0  0  0  0  0
   -5.0879   -2.4128    2.5656 C   0  0  0  0  0  0  0  0  0  0  0  0
   -4.7639   -2.2711    1.0967 C   0  0  0  0  0  0  0  0  0  0  0  0
   -5.7768   -2.4840    0.1481 C   0  0  0  0  0  0  0  0  0  0  0  0
   -5.4830   -2.4410   -1.2147 C   0  0  0  0  0  0  0  0  0  0  0  0
   -4.1763   -2.1867   -1.6214 C   0  0  0  0  0  0  0  0  0  0  0  0
   -3.2103   -1.9478   -0.6957 N   0  0  0  0  0  0  0  0  0  0  0  0
   -3.4663   -1.9365    0.6428 C   0  0  0  0  0  0  0  0  0  0  0  0
    1.5915    1.1444    1.1075 C   0  0  0  0  0  0  0  0  0  0  0  0
    2.6127    1.5421    0.2367 C   0  0  0  0  0  0  0  0  0  0  0  0
    8.4176    2.6930   -1.1818 N   0  0  0  0  0  0  0  0  0  0  0  0
    9.6678    2.7472   -0.6486 C   0  0  0  0  0  0  0  0  0  0  0  0
   11.3887    1.6100   -0.0238 H   0  0  0  0  0  0  0  0  0  0  0  0
   10.3688   -0.5747   -0.6334 H   0  0  0  0  0  0  0  0  0  0  0  0
    8.0907   -0.6406   -1.6098 H   0  0  0  0  0  0  0  0  0  0  0  0
    6.2310    2.5373   -2.5033 H   0  0  0  0  0  0  0  0  0  0  0  0
    6.4530    0.8301   -3.0172 H   0  0  0  0  0  0  0  0  0  0  0  0
    5.6641    0.1183   -0.8342 H   0  0  0  0  0  0  0  0  0  0  0  0
    5.4855    1.7425   -0.3309 H   0  0  0  0  0  0  0  0  0  0  0  0
    4.0878    0.4712   -2.6551 H   0  0  0  0  0  0  0  0  0  0  0  0
    3.8669    2.1583   -2.0912 H   0  0  0  0  0  0  0  0  0  0  0  0
    2.8638   -1.3065   -1.6208 H   0  0  0  0  0  0  0  0  0  0  0  0
    1.0882   -2.0102   -0.0805 H   0  0  0  0  0  0  0  0  0  0  0  0
   -0.1723    0.0768    2.7919 H   0  0  0  0  0  0  0  0  0  0  0  0
    0.1170   -1.5847    2.2541 H   0  0  0  0  0  0  0  0  0  0  0  0
   -1.1997   -0.7457    0.1349 H   0  0  0  0  0  0  0  0  0  0  0  0
   -2.3185    1.1127    2.2088 H   0  0  0  0  0  0  0  0  0  0  0  0
   -1.2166    1.5830    0.9217 H   0  0  0  0  0  0  0  0  0  0  0  0
   -7.1371    1.2053    0.0095 H   0  0  0  0  0  0  0  0  0  0  0  0
   -7.9418    1.2578   -2.3631 H   0  0  0  0  0  0  0  0  0  0  0  0
   -6.3039    1.2628   -4.2395 H   0  0  0  0  0  0  0  0  0  0  0  0
   -3.8443    1.1928   -3.7598 H   0  0  0  0  0  0  0  0  0  0  0  0
   -2.0269    1.0333   -1.6564 H   0  0  0  0  0  0  0  0  0  0  0  0
   -1.7446   -2.5876    1.6148 H   0  0  0  0  0  0  0  0  0  0  0  0
   -3.3492   -0.4716    3.2005 H   0  0  0  0  0  0  0  0  0  0  0  0
   -1.9778   -1.4820    3.7760 H   0  0  0  0  0  0  0  0  0  0  0  0
   -3.3661   -3.5360    3.2980 H   0  0  0  0  0  0  0  0  0  0  0  0
   -4.1155   -2.4357    4.5056 H   0  0  0  0  0  0  0  0  0  0  0  0
   -5.7112   -3.3180    2.7286 H   0  0  0  0  0  0  0  0  0  0  0  0
   -5.6771   -1.5279    2.8836 H   0  0  0  0  0  0  0  0  0  0  0  0
   -6.7912   -2.6946    0.4661 H   0  0  0  0  0  0  0  0  0  0  0  0
   -6.2608   -2.6146   -1.9483 H   0  0  0  0  0  0  0  0  0  0  0  0
   -3.9313   -2.1634   -2.6757 H   0  0  0  0  0  0  0  0  0  0  0  0
    1.2300    1.8407    1.8544 H   0  0  0  0  0  0  0  0  0  0  0  0
    3.0359    2.5343    0.3332 H   0  0  0  0  0  0  0  0  0  0  0  0
   10.0978    3.7031   -0.3843 H   0  0  0  0  0  0  0  0  0  0  0  0
  1  2  2  0
  2  3  1  0
  3  4  2  0
  4  5  1  0
  5  6  1  0
  6  7  1  0
  7  8  1  0
  8  9  2  0
  9 10  1  0
 10 11  2  0
 11 12  1  0
 12 13  1  0
 13 14  1  0
 14 15  1  0
 15 16  2  0
 16 17  1  0
 17 18  2  0
 18 19  1  0
 19 20  2  0
 20 21  1  0
 21 22  2  0
 22 23  1  0
 13 24  1  0
 24 25  1  0
 25 26  1  0
 26 27  1  0
 27 28  1  0
 28 29  2  0
 29 30  1  0
 30 31  2  0
 31 32  1  0
 32 33  2  0
 11 34  1  0
 34 35  2  0
  4 36  1  0
 36 37  2  0
 37  1  1  0
 35  8  1  0
 23 15  1  0
 33 24  1  0
 22 17  1  0
 33 28  1  0
  1 38  1  0
  2 39  1  0
  3 40  1  0
  5 41  1  0
  5 42  1  0
  6 43  1  0
  6 44  1  0
  7 45  1  0
  7 46  1  0
  9 47  1  0
 10 48  1  0
 12 49  1  0
 12 50  1  0
 13 51  1  0
 14 52  1  0
 14 53  1  0
 18 54  1  0
 19 55  1  0
 20 56  1  0
 21 57  1  0
 23 58  1  0
 24 59  1  0
 25 60  1  0
 25 61  1  0
 26 62  1  0
 26 63  1  0
 27 64  1  0
 27 65  1  0
 29 66  1  0
 30 67  1  0
 31 68  1  0
 34 69  1  0
 35 70  1  0
 37 71  1  0
M  CHG  2   6   1  13   1
M  END
>  <IX_DELTA_E>  (302)
0.000

>  <IX_CONF_ID>  (302)
1

>  <IX_Q>  (302)
-0.1500
-0.1500
-0.1500
0.1665
0.4865
-0.9060
0.4865
-0.1435
-0.1500
-0.1500
-0.1435
0.4865
-0.9590
0.5230
0.0065
-0.5653
0.2272
-0.1500
-0.1500
-0.1500
-0.1500
-0.1516
0.0332
0.5665
-0.1600
-0.1600
-0.0165
-0.1435
-0.1500
-0.1500
0.1600
-0.6200
0.1665
-0.1500
-0.1500
-0.6200
0.1600
0.1500
0.1500
0.1500
0.0800
0.0800
0.4500
0.4500
0.0800
0.0800
0.1500
0.1500
0.0800
0.0800
0.4500
0.0800
0.0800
0.1500
0.1500
0.1500
0.1500
0.2700
0.0800
0.0800
0.0800
0.0800
0.0800
0.0800
0.0800
0.1500
0.1500
0.1500
0.1500
0.1500
0.1500

>  <IX_ALOGP>  (302)
0.15810
0.15810
0.15810
0.13600
-0.05160
-1.95000
-0.05160
0.13600
0.15810
0.15810
0.13600
-0.05160
-1.95000
-0.05160
0.13600
-0.32390
0.29550
0.15810
0.15810
0.15810
0.15810
0.29550
-0.32390
0.11930
0.14410
0.14410
-0.05160
0.13600
0.15810
0.15810
0.15810
-0.32390
0.13600
0.15810
0.15810
-0.32390
0.15810
0.12300
0.12300
0.12300
0.12300
0.12300
0.21420
0.21420
0.12300
0.12300
0.12300
0.12300
0.12300
0.12300
0.21420
0.12300
0.12300
0.12300
0.12300
0.12300
0.12300
0.21420
0.12300
0.12300
0.12300
0.12300
0.12300
0.12300
0.12300
0.12300
0.12300
0.12300
0.12300
0.12300
0.12300

$$$$
454388
     RDKit          3D

 63 68  0  0  0  0  0  0  0  0999 V2000
   -1.9302   -3.5175   -0.4236 C   0  0  0  0  0  0  0  0  0  0  0  0
   -2.5599   -2.4069   -0.0317 C   0  0  0  0  0  0  0  0  0  0  0  0
   -3.4622   -1.6011   -0.9235 C   0  0  0  0  0  0  0  0  0  0  0  0
   -2.5613   -0.6855   -2.2385 S   0  0  0  0  0  0  0  0  0  0  0  0
   -1.0885   -0.2439   -1.2880 C   0  0  0  0  0  0  0  0  0  0  0  0
   -1.0572    0.7959   -0.5066 N   0  0  0  0  0  0  0  0  0  0  0  0
   -2.1364    1.7539   -0.2552 C   0  0  0  0  0  0  0  0  0  0  0  0
   -1.9046    2.4236    1.1078 C   0  0  0  0  0  0  0  0  0  0  0  0
   -0.6631    3.3250    1.0920 C   0  0  0  0  0  0  0  0  0  0  0  0
   -0.7789    4.3858   -0.0055 C   0  0  0  0  0  0  0  0  0  0  0  0
   -0.9909    3.7382   -1.3815 C   0  0  0  0  0  0  0  0  0  0  0  0
   -2.2125    2.8084   -1.3778 C   0  0  0  0  0  0  0  0  0  0  0  0
    0.0598   -1.1016   -1.4016 N   0  0  0  0  0  0  0  0  0  0  0  0
    1.4109   -0.8176   -0.8790 C   0  0  0  0  0  0  0  0  0  0  0  0
    1.4054   -0.6797    0.6709 C   0  0  0  0  0  0  0  0  0  0  0  0
    2.8382   -0.3973    1.1773 C   0  0  0  0  0  0  0  0  0  0  0  0
    3.3685    0.9056    0.5333 C   0  0  0  0  0  0  0  0  0  0  0  0
    3.4011    0.7503   -1.0037 C   0  0  0  0  0  0  0  0  0  0  0  0
    4.3214   -0.4302   -1.3849 C   0  0  0  0  0  0  0  0  0  0  0  0
    3.7860   -1.7272   -0.7429 C   0  0  0  0  0  0  0  0  0  0  0  0
    3.7623   -1.5728    0.7925 C   0  0  0  0  0  0  0  0  0  0  0  0
    2.3565   -1.9955   -1.2554 C   0  0  0  0  0  0  0  0  0  0  0  0
    1.9713    0.4803   -1.5180 C   0  0  0  0  0  0  0  0  0  0  0  0
   -2.2993   -2.0424    1.3193 N   0  0  0  0  0  0  0  0  0  0  0  0
   -3.2654   -1.5604    2.2938 C   0  0  0  0  0  0  0  0  0  0  0  0
   -2.8758   -2.3165    3.5773 C   0  0  0  0  0  0  0  0  0  0  0  0
   -1.8719   -3.2917    3.1527 N   0  0  0  0  0  0  0  0  0  0  0  0
   -1.5469   -3.0477    1.9311 C   0  0  0  0  0  0  0  0  0  0  0  0
   -0.8388   -4.2494    0.8197 S   0  0  0  0  0  0  0  0  0  0  0  0
   -2.0425   -3.9350   -1.4150 H   0  0  0  0  0  0  0  0  0  0  0  0
   -4.0461   -0.8825   -0.3173 H   0  0  0  0  0  0  0  0  0  0  0  0
   -4.1921   -2.2800   -1.4137 H   0  0  0  0  0  0  0  0  0  0  0  0
   -3.1070    1.2222   -0.1951 H   0  0  0  0  0  0  0  0  0  0  0  0
   -1.7798    1.6422    1.8893 H   0  0  0  0  0  0  0  0  0  0  0  0
   -2.7966    3.0285    1.3860 H   0  0  0  0  0  0  0  0  0  0  0  0
    0.2477    2.7101    0.9226 H   0  0  0  0  0  0  0  0  0  0  0  0
   -0.5584    3.8219    2.0802 H   0  0  0  0  0  0  0  0  0  0  0  0
   -1.6321    5.0614    0.2249 H   0  0  0  0  0  0  0  0  0  0  0  0
    0.1483    4.9980   -0.0270 H   0  0  0  0  0  0  0  0  0  0  0  0
   -0.0831    3.1672   -1.6727 H   0  0  0  0  0  0  0  0  0  0  0  0
   -1.1461    4.5348   -2.1400 H   0  0  0  0  0  0  0  0  0  0  0  0
   -3.1356    3.4187   -1.2369 H   0  0  0  0  0  0  0  0  0  0  0  0
   -2.2941    2.3055   -2.3651 H   0  0  0  0  0  0  0  0  0  0  0  0
   -0.0726   -1.9644   -1.9731 H   0  0  0  0  0  0  0  0  0  0  0  0
    0.7494    0.1461    1.0090 H   0  0  0  0  0  0  0  0  0  0  0  0
    1.0193   -1.6132    1.1380 H   0  0  0  0  0  0  0  0  0  0  0  0
    2.8238   -0.2825    2.2842 H   0  0  0  0  0  0  0  0  0  0  0  0
    4.3888    1.1293    0.9148 H   0  0  0  0  0  0  0  0  0  0  0  0
    2.7213    1.7649    0.8150 H   0  0  0  0  0  0  0  0  0  0  0  0
    3.7908    1.6844   -1.4648 H   0  0  0  0  0  0  0  0  0  0  0  0
    5.3567   -0.2346   -1.0360 H   0  0  0  0  0  0  0  0  0  0  0  0
    4.3632   -0.5420   -2.4914 H   0  0  0  0  0  0  0  0  0  0  0  0
    4.4439   -2.5792   -1.0194 H   0  0  0  0  0  0  0  0  0  0  0  0
    4.7922   -1.3807    1.1669 H   0  0  0  0  0  0  0  0  0  0  0  0
    3.4050   -2.5148    1.2676 H   0  0  0  0  0  0  0  0  0  0  0  0
    2.3766   -2.1341   -2.3632 H   0  0  0  0  0  0  0  0  0  0  0  0
    1.9780   -2.9451   -0.8134 H   0  0  0  0  0  0  0  0  0  0  0  0
    1.9837    0.3841   -2.6302 H   0  0  0  0  0  0  0  0  0  0  0  0
    1.3311    1.3484   -1.2609 H   0  0  0  0  0  0  0  0  0  0  0  0
   -4.3011   -1.8322    1.9815 H   0  0  0  0  0  0  0  0  0  0  0  0
   -3.1720   -0.4595    2.4262 H   0  0  0  0  0  0  0  0  0  0  0  0
   -2.4393   -1.6289    4.3326 H   0  0  0  0  0  0  0  0  0  0  0  0
   -3.7591   -2.8412    4.0078 H   0  0  0  0  0  0  0  0  0  0  0  0
  1  2  2  0
  2  3  1  0
  3  4  1  0
  4  5  1  0
  5  6  2  0
  6  7  1  0
  7  8  1  0
  8  9  1  0
  9 10  1  0
 10 11  1  0
 11 12  1  0
  5 13  1  0
 13 14  1  0
 14 15  1  0
 15 16  1  0
 16 17  1  0
 17 18  1  0
 18 19  1  0
 19 20  1  0
 20 21  1  0
 20 22  1  0
 18 23  1  0
  2 24  1  0
 24 25  1  0
 25 26  1  0
 26 27  1  0
 27 28  2  0
 28 29  1  0
 29  1  1  0
 12  7  1  0
 22 14  1  0
 28 24  1  0
 23 14  1  0
 21 16  1  0
  1 30  1  0
  3 31  1  0
  3 32  1  0
  7 33  1  0
  8 34  1  0
  8 35  1  0
  9 36  1  0
  9 37  1  0
 10 38  1  0
 10 39  1  0
 11 40  1  0
 11 41  1  0
 12 42  1  0
 12 43  1  0
 13 44  1  0
 15 45  1  0
 15 46  1  0
 16 47  1  0
 17 48  1  0
 17 49  1  0
 18 50  1  0
 19 51  1  0
 19 52  1  0
 20 53  1  0
 21 54  1  0
 21 55  1  0
 22 56  1  0
 22 57  1  0
 23 58  1  0
 23 59  1  0
 25 60  1  0
 25 61  1  0
 26 62  1  0
 26 63  1  0
M  END
>  <IX_DELTA_E>  (343)
0.000

>  <IX_CONF_ID>  (343)
1

>  <IX_Q>  (343)
-0.0490
-0.0382
0.2082
-0.3710
0.6410
-0.6960
0.1660
-0.1600
-0.1600
-0.1600
-0.1600
-0.1600
-0.8191
0.3691
-0.1600
-0.0800
-0.1600
-0.0800
-0.1600
-0.0800
-0.1600
-0.1600
-0.1600
-0.5191
0.2091
0.0860
-0.6960
0.6410
-0.2420
0.1500
0.0800
0.0800
0.0800
0.0800
0.0800
0.0800
0.0800
0.0800
0.0800
0.0800
0.0800
0.0800
0.0800
0.4000
0.0800
0.0800
0.0800
0.0800
0.0800
0.0800
0.0800
0.0800
0.0800
0.0800
0.0800
0.0800
0.0800
0.0800
0.0800
0.0800
0.0800
0.0800
0.0800

>  <IX_ALOGP>  (343)
0.15510
0.15510
-0.20350
0.64820
-0.27830
0.18360
-0.20510
0.14410
0.14410
0.14410
0.14410
0.14410
-0.70960
-0.20510
0.14410
0.00000
0.14410
0.00000
0.14410
0.00000
0.14410
0.14410
0.14410
-0.31870
-0.20350
-0.20350
0.18360
-0.27830
0.64820
0.12300
0.12300
0.12300
0.12300
0.12300
0.12300
0.12300
0.12300
0.12300
0.12300
0.12300
0.12300
0.12300
0.12300
0.21420
0.12300
0.12300
0.12300
0.12300
0.12300
0.12300
0.12300
0.12300
0.12300
0.12300
0.12300
0.12300
0.12300
0.12300
0.12300
0.12300
0.12300
0.12300
0.12300

$$$$
454455
     RDKit          3D

 67 70  0  0  0  0  0  0  0  0999 V2000
    6.3300   -1.6983   -0.5986 C   0  0  0  0  0  0  0  0  0  0  0  0
    5.7511   -0.5164    0.2175 C   0  0  0  0  0  0  0  0  0  0  0  0
    5.7940    0.7499   -0.6690 C   0  0  0  0  0  0  0  0  0  0  0  0
    6.6901   -0.2933    1.4301 C   0  0  0  0  0  0  0  0  0  0  0  0
    4.2877   -0.8590    0.7131 C   0  0  0  0  0  0  0  0  0  0  0  0
    3.2950   -1.1761   -0.4411 C   0  0  0  0  0  0  0  0  0  0  0  0
    1.9129   -1.5743    0.0965 C   0  0  0  0  0  0  0  0  0  0  0  0
    1.3370   -0.4656    0.9866 C   0  0  0  0  0  0  0  0  0  0  0  0
    0.0270   -0.8645    1.5048 N   0  0  0  0  0  0  0  0  0  0  0  0
   -1.1749   -0.1252    1.2476 C   0  0  0  0  0  0  0  0  0  0  0  0
   -1.2210    0.7016    0.2418 N   0  0  0  0  0  0  0  0  0  0  0  0
   -2.3396    1.5638   -0.1426 C   0  0  0  0  0  0  0  0  0  0  0  0
   -2.1401    2.0007   -1.6017 C   0  0  0  0  0  0  0  0  0  0  0  0
   -3.2477    2.9612   -2.0502 C   0  0  0  0  0  0  0  0  0  0  0  0
   -3.3262    4.1803   -1.1259 C   0  0  0  0  0  0  0  0  0  0  0  0
   -3.5265    3.7510    0.3321 C   0  0  0  0  0  0  0  0  0  0  0  0
   -2.4153    2.7932    0.7818 C   0  0  0  0  0  0  0  0  0  0  0  0
   -2.5680   -0.3521    2.3703 S   0  0  0  0  0  0  0  0  0  0  0  0
   -3.2857   -1.7883    1.4983 C   0  0  0  0  0  0  0  0  0  0  0  0
   -4.3510   -1.3368    0.5445 C   0  0  0  0  0  0  0  0  0  0  0  0
   -5.4431   -0.6720    0.9311 C   0  0  0  0  0  0  0  0  0  0  0  0
   -6.5292   -0.1538   -0.4133 S   0  0  0  0  0  0  0  0  0  0  0  0
   -5.4755   -1.1483   -1.4494 C   0  0  0  0  0  0  0  0  0  0  0  0
   -5.9140   -1.9297   -2.3696 N   0  0  0  0  0  0  0  0  0  0  0  0
   -4.9019   -2.9434   -2.6472 C   0  0  0  0  0  0  0  0  0  0  0  0
   -3.8552   -2.7738   -1.5319 C   0  0  0  0  0  0  0  0  0  0  0  0
   -4.2773   -1.5588   -0.8547 N   0  0  0  0  0  0  0  0  0  0  0  0
    2.2906   -0.1815    2.1531 C   0  0  0  0  0  0  0  0  0  0  0  0
    3.6755    0.2285    1.6389 C   0  0  0  0  0  0  0  0  0  0  0  0
    6.2307   -2.6524   -0.0386 H   0  0  0  0  0  0  0  0  0  0  0  0
    5.8222   -1.8053   -1.5788 H   0  0  0  0  0  0  0  0  0  0  0  0
    7.4076   -1.5401   -0.8197 H   0  0  0  0  0  0  0  0  0  0  0  0
    5.4241    1.6423   -0.1247 H   0  0  0  0  0  0  0  0  0  0  0  0
    5.1945    0.6188   -1.5921 H   0  0  0  0  0  0  0  0  0  0  0  0
    6.8380    0.9636   -0.9855 H   0  0  0  0  0  0  0  0  0  0  0  0
    7.7520   -0.2159    1.1063 H   0  0  0  0  0  0  0  0  0  0  0  0
    6.6083   -1.1355    2.1510 H   0  0  0  0  0  0  0  0  0  0  0  0
    6.4527    0.6537    1.9588 H   0  0  0  0  0  0  0  0  0  0  0  0
    4.3688   -1.7852    1.3261 H   0  0  0  0  0  0  0  0  0  0  0  0
    3.6641   -2.0239   -1.0533 H   0  0  0  0  0  0  0  0  0  0  0  0
    3.1745   -0.2917   -1.1035 H   0  0  0  0  0  0  0  0  0  0  0  0
    1.9942   -2.5231    0.6732 H   0  0  0  0  0  0  0  0  0  0  0  0
    1.2258   -1.7502   -0.7593 H   0  0  0  0  0  0  0  0  0  0  0  0
    1.2470    0.4623    0.3797 H   0  0  0  0  0  0  0  0  0  0  0  0
   -0.0221   -1.6715    2.1682 H   0  0  0  0  0  0  0  0  0  0  0  0
   -3.2902    0.9997   -0.0839 H   0  0  0  0  0  0  0  0  0  0  0  0
   -2.1520    1.1044   -2.2588 H   0  0  0  0  0  0  0  0  0  0  0  0
   -1.1495    2.4945   -1.7190 H   0  0  0  0  0  0  0  0  0  0  0  0
   -4.2238    2.4287   -2.0488 H   0  0  0  0  0  0  0  0  0  0  0  0
   -3.0424    3.2987   -3.0890 H   0  0  0  0  0  0  0  0  0  0  0  0
   -2.3931    4.7792   -1.2146 H   0  0  0  0  0  0  0  0  0  0  0  0
   -4.1754    4.8241   -1.4392 H   0  0  0  0  0  0  0  0  0  0  0  0
   -4.5154    3.2531    0.4403 H   0  0  0  0  0  0  0  0  0  0  0  0
   -3.5217    4.6511    0.9838 H   0  0  0  0  0  0  0  0  0  0  0  0
   -1.4398    3.3276    0.7820 H   0  0  0  0  0  0  0  0  0  0  0  0
   -2.6262    2.4725    1.8225 H   0  0  0  0  0  0  0  0  0  0  0  0
   -2.4983   -2.3590    0.9633 H   0  0  0  0  0  0  0  0  0  0  0  0
   -3.7380   -2.4663    2.2508 H   0  0  0  0  0  0  0  0  0  0  0  0
   -5.6503   -0.4353    1.9651 H   0  0  0  0  0  0  0  0  0  0  0  0
   -5.3602   -3.9557   -2.6225 H   0  0  0  0  0  0  0  0  0  0  0  0
   -4.4492   -2.7513   -3.6447 H   0  0  0  0  0  0  0  0  0  0  0  0
   -3.8733   -3.6372   -0.8329 H   0  0  0  0  0  0  0  0  0  0  0  0
   -2.8398   -2.6369   -1.9580 H   0  0  0  0  0  0  0  0  0  0  0  0
    2.3874   -1.0844    2.7964 H   0  0  0  0  0  0  0  0  0  0  0  0
    1.8752    0.6396    2.7777 H   0  0  0  0  0  0  0  0  0  0  0  0
    3.5803    1.1943    1.0999 H   0  0  0  0  0  0  0  0  0  0  0  0
    4.3147    0.3932    2.5290 H   0  0  0  0  0  0  0  0  0  0  0  0
  1  2  1  0
  2  3  1  0
  2  4  1  0
  2  5  1  0
  5  6  1  0
  6  7  1  0
  7  8  1  0
  8  9  1  0
  9 10  1  0
 10 11  2  0
 11 12  1  0
 12 13  1  0
 13 14  1  0
 14 15  1  0
 15 16  1  0
 16 17  1  0
 10 18  1  0
 18 19  1  0
 19 20  1  0
 20 21  2  0
 21 22  1  0
 22 23  1  0
 23 24  2  0
 24 25  1  0
 25 26  1  0
 26 27  1  0
  8 28  1  0
 28 29  1  0
 29  5  1  0
 17 12  1  0
 27 20  1  0
 27 23  1  0
  1 30  1  0
  1 31  1  0
  1 32  1  0
  3 33  1  0
  3 34  1  0
  3 35  1  0
  4 36  1  0
  4 37  1  0
  4 38  1  0
  5 39  1  0
  6 40  1  0
  6 41  1  0
  7 42  1  0
  7 43  1  0
  8 44  1  0
  9 45  1  0
 12 46  1  0
 13 47  1  0
 13 48  1  0
 14 49  1  0
 14 50  1  0
 15 51  1  0
 15 52  1  0
 16 53  1  0
 16 54  1  0
 17 55  1  0
 17 56  1  0
 19 57  1  0
 19 58  1  0
 21 59  1  0
 25 60  1  0
 25 61  1  0
 26 62  1  0
 26 63  1  0
 28 64  1  0
 28 65  1  0
 29 66  1  0
 29 67  1  0
M  END
>  <IX_DELTA_E>  (347)
0.000

>  <IX_CONF_ID>  (347)
1

>  <IX_Q>  (347)
-0.2400
0.0000
-0.2400
-0.2400
-0.0800
-0.1600
-0.1600
0.2891
-0.8191
0.6410
-0.6960
0.1660
-0.1600
-0.1600
-0.1600
-0.1600
-0.1600
-0.3710
0.2082
-0.0382
-0.0490
-0.2420
0.6410
-0.6960
0.0860
0.2091
-0.5191
-0.1600
-0.1600
0.0800
0.0800
0.0800
0.0800
0.0800
0.0800
0.0800
0.0800
0.0800
0.0800
0.0800
0.0800
0.0800
0.0800
0.0800
0.4000
0.0800
0.0800
0.0800
0.0800
0.0800
0.0800
0.0800
0.0800
0.0800
0.0800
0.0800
0.0800
0.0800
0.1500
0.0800
0.0800
0.0800
0.0800
0.0800
0.0800
0.0800
0.0800

>  <IX_ALOGP>  (347)
0.14410
0.00000
0.14410
0.14410
0.00000
0.14410
0.14410
-0.20510
-0.70960
-0.27830
0.18360
-0.20510
0.14410
0.14410
0.14410
0.14410
0.14410
0.64820
-0.20350
0.15510
0.15510
0.64820
-0.27830
0.18360
-0.20350
-0.20350
-0.31870
0.14410
0.14410
0.12300
0.12300
0.12300
0.12300
0.12300
0.12300
0.12300
0.12300
0.12300
0.12300
0.12300
0.12300
0.12300
0.12300
0.12300
0.21420
0.12300
0.12300
0.12300
0.12300
0.12300
0.12300
0.12300
0.12300
0.12300
0.12300
0.12300
0.12300
0.12300
0.12300
0.12300
0.12300
0.12300
0.12300
0.12300
0.12300
0.12300
0.12300

$$$$
621265
     RDKit          3D

 53 56  0  0  0  0  0  0  0  0999 V2000
   -3.8460    7.4827    1.2350 N   0  0  0  0  0  0  0  0  0  0  0  0
   -3.6015    6.4362    0.8048 C   0  0  0  0  0  0  0  0  0  0  0  0
   -3.2993    5.1089    0.2560 C   0  0  0  0  0  0  0  0  0  0  0  0
   -2.1175    4.4783    0.9938 C   0  0  0  0  0  0  0  0  0  0  0  0
   -1.7994    3.0879    0.4270 C   0  0  0  0  0  0  0  0  0  0  0  0
   -0.6135    2.4340    1.1698 C   0  0  0  0  0  0  0  0  0  0  0  0
   -0.0366    1.2610    0.4540 N   0  0  0  0  0  0  0  0  0  0  0  0
    1.2648    0.9121    1.0984 C   0  0  0  0  0  0  0  0  0  0  0  0
    2.0445   -0.1195    0.3360 C   0  0  0  0  0  0  0  0  0  0  0  0
    2.5749    0.1179   -0.8946 N   0  0  0  0  0  0  0  0  0  0  0  0
    3.1116   -1.0717   -1.2216 C   0  0  0  0  0  0  0  0  0  0  0  0
    3.7189   -1.4322   -2.4216 C   0  0  0  0  0  0  0  0  0  0  0  0
    4.1313   -2.7716   -2.5689 C   0  0  0  0  0  0  0  0  0  0  0  0
    3.9183   -3.7054   -1.5283 C   0  0  0  0  0  0  0  0  0  0  0  0
    3.2976   -3.3092   -0.3287 C   0  0  0  0  0  0  0  0  0  0  0  0
    2.9097   -1.9748   -0.2188 C   0  0  0  0  0  0  0  0  0  0  0  0
    2.2408   -1.3857    0.7809 N   0  0  0  0  0  0  0  0  0  0  0  0
   -1.0136    0.1170    0.3375 C   0  0  0  0  0  0  0  0  0  0  0  0
   -1.3676   -0.5403    1.7023 C   0  0  0  0  0  0  0  0  0  0  0  0
   -2.1610   -1.8281    1.4987 C   0  0  0  0  0  0  0  0  0  0  0  0
   -1.2989   -2.8603    0.7644 C   0  0  0  0  0  0  0  0  0  0  0  0
   -0.7150   -2.2972   -0.5041 C   0  0  0  0  0  0  0  0  0  0  0  0
   -0.2811   -3.1788   -1.5057 C   0  0  0  0  0  0  0  0  0  0  0  0
    0.1793   -2.6823   -2.7254 C   0  0  0  0  0  0  0  0  0  0  0  0
    0.1839   -1.3046   -2.9424 C   0  0  0  0  0  0  0  0  0  0  0  0
   -0.2031   -0.4568   -1.9505 N   0  0  0  0  0  0  0  0  0  0  0  0
   -0.6080   -0.9028   -0.7251 C   0  0  0  0  0  0  0  0  0  0  0  0
   -4.1997    4.4644    0.3630 H   0  0  0  0  0  0  0  0  0  0  0  0
   -3.0608    5.2141   -0.8274 H   0  0  0  0  0  0  0  0  0  0  0  0
   -2.3578    4.3843    2.0782 H   0  0  0  0  0  0  0  0  0  0  0  0
   -1.2277    5.1352    0.8830 H   0  0  0  0  0  0  0  0  0  0  0  0
   -2.7078    2.4591    0.5441 H   0  0  0  0  0  0  0  0  0  0  0  0
   -1.5612    3.1849   -0.6569 H   0  0  0  0  0  0  0  0  0  0  0  0
   -0.9246    2.1578    2.2017 H   0  0  0  0  0  0  0  0  0  0  0  0
    0.1709    3.2189    1.2774 H   0  0  0  0  0  0  0  0  0  0  0  0
    0.1876    1.6020   -0.5129 H   0  0  0  0  0  0  0  0  0  0  0  0
    1.9207    1.8102    1.1469 H   0  0  0  0  0  0  0  0  0  0  0  0
    1.1327    0.6000    2.1557 H   0  0  0  0  0  0  0  0  0  0  0  0
    3.8477   -0.7154   -3.2210 H   0  0  0  0  0  0  0  0  0  0  0  0
    4.5993   -3.0935   -3.4901 H   0  0  0  0  0  0  0  0  0  0  0  0
    4.2247   -4.7353   -1.6554 H   0  0  0  0  0  0  0  0  0  0  0  0
    3.1153   -4.0214    0.4684 H   0  0  0  0  0  0  0  0  0  0  0  0
    1.8972   -1.8158    1.6683 H   0  0  0  0  0  0  0  0  0  0  0  0
   -1.9683    0.5048   -0.0641 H   0  0  0  0  0  0  0  0  0  0  0  0
   -1.9832    0.1575    2.3128 H   0  0  0  0  0  0  0  0  0  0  0  0
   -0.4628   -0.8035    2.2843 H   0  0  0  0  0  0  0  0  0  0  0  0
   -3.0839   -1.6184    0.9126 H   0  0  0  0  0  0  0  0  0  0  0  0
   -2.4649   -2.2396    2.4849 H   0  0  0  0  0  0  0  0  0  0  0  0
   -0.4666   -3.2068    1.4193 H   0  0  0  0  0  0  0  0  0  0  0  0
   -1.9415   -3.7384    0.5302 H   0  0  0  0  0  0  0  0  0  0  0  0
   -0.3269   -4.2507   -1.3517 H   0  0  0  0  0  0  0  0  0  0  0  0
    0.5075   -3.3616   -3.5017 H   0  0  0  0  0  0  0  0  0  0  0  0
    0.5208   -0.9078   -3.8915 H   0  0  0  0  0  0  0  0  0  0  0  0
  1  2  3  0
  2  3  1  0
  3  4  1  0
  4  5  1  0
  5  6  1  0
  6  7  1  0
  7  8  1  0
  8  9  1  0
  9 10  2  0
 10 11  1  0
 11 12  2  0
 12 13  1  0
 13 14  2  0
 14 15  1  0
 15 16  2  0
 16 17  1  0
  7 18  1  0
 18 19  1  0
 19 20  1  0
 20 21  1  0
 21 22  1  0
 22 23  2  0
 23 24  1  0
 24 25  2  0
 25 26  1  0
 26 27  2  0
 17  9  1  0
 27 18  1  0
 16 11  1  0
 27 22  1  0
  3 28  1  0
  3 29  1  0
  4 30  1  0
  4 31  1  0
  5 32  1  0
  5 33  1  0
  6 34  1  0
  6 35  1  0
  7 36  1  0
  8 37  1  0
  8 38  1  0
 12 39  1  0
 13 40  1  0
 14 41  1  0
 15 42  1  0
 17 43  1  0
 18 44  1  0
 19 45  1  0
 19 46  1  0
 20 47  1  0
 20 48  1  0
 21 49  1  0
 21 50  1  0
 23 51  1  0
 24 52  1  0
 25 53  1  0
M  CHG  1   7   1
M  END
>  <IX_DELTA_E>  (351)
0.000

>  <IX_CONF_ID>  (351)
1

>  <IX_Q>  (351)
-0.5571
0.3571
0.0400
-0.1600
-0.1600
0.3430
-0.9590
0.5230
0.0065
-0.5653
0.2272
-0.1500
-0.1500
-0.1500
-0.1500
-0.1516
0.0332
0.5665
-0.1600
-0.1600
-0.0165
-0.1435
-0.1500
-0.1500
0.1600
-0.6200
0.1665
0.0800
0.0800
0.0800
0.0800
0.0800
0.0800
0.0800
0.0800
0.4500
0.0800
0.0800
0.1500
0.1500
0.1500
0.1500
0.2700
0.0800
0.0800
0.0800
0.0800
0.0800
0.0800
0.0800
0.1500
0.1500
0.1500

>  <IX_ALOGP>  (351)
0.01508
0.00170
0.14410
0.14410
0.14410
-0.20350
-1.95000
-0.05160
0.13600
-0.32390
0.29550
0.15810
0.15810
0.15810
0.15810
0.29550
-0.32390
0.11930
0.14410
0.14410
-0.05160
0.13600
0.15810
0.15810
0.15810
-0.32390
0.13600
0.12300
0.12300
0.12300
0.12300
0.12300
0.12300
0.12300
0.12300
0.21420
0.12300
0.12300
0.12300
0.12300
0.12300
0.12300
0.21420
0.12300
0.12300
0.12300
0.12300
0.12300
0.12300
0.12300
0.12300
0.12300
0.12300

$$$$
454307
     RDKit          3D

 49 52  0  0  0  0  0  0  0  0999 V2000
    1.9623   -1.1719   -1.7779 C   0  0  0  0  0  0  0  0  0  0  0  0
    2.5044   -1.4413   -0.5870 C   0  0  0  0  0  0  0  0  0  0  0  0
    1.8443   -2.3064    0.4489 C   0  0  0  0  0  0  0  0  0  0  0  0
    0.8542   -1.3223    1.6311 S   0  0  0  0  0  0  0  0  0  0  0  0
   -0.4212   -0.8546    0.4437 C   0  0  0  0  0  0  0  0  0  0  0  0
   -0.4606    0.3366   -0.0850 N   0  0  0  0  0  0  0  0  0  0  0  0
    0.4585    1.4318    0.2261 C   0  0  0  0  0  0  0  0  0  0  0  0
    0.1138    2.0854    1.5658 C   0  0  0  0  0  0  0  0  0  0  0  0
    0.2055    3.5956    1.3546 C   0  0  0  0  0  0  0  0  0  0  0  0
    0.7118    3.8038   -0.0659 C   0  0  0  0  0  0  0  0  0  0  0  0
    0.3422    2.5366   -0.8107 C   0  0  0  0  0  0  0  0  0  0  0  0
   -1.4294   -1.8170    0.1068 N   0  0  0  0  0  0  0  0  0  0  0  0
   -2.7093   -1.4275   -0.4907 C   0  0  0  0  0  0  0  0  0  0  0  0
   -3.6997   -0.9808    0.5814 C   0  0  0  0  0  0  0  0  0  0  0  0
   -5.0726   -1.4939    0.1484 C   0  0  0  0  0  0  0  0  0  0  0  0
   -4.8656   -2.2837   -1.1393 C   0  0  0  0  0  0  0  0  0  0  0  0
   -3.3803   -2.5916   -1.2057 C   0  0  0  0  0  0  0  0  0  0  0  0
    3.7411   -0.7789   -0.3643 N   0  0  0  0  0  0  0  0  0  0  0  0
    4.2518   -0.1857    0.8569 C   0  0  0  0  0  0  0  0  0  0  0  0
    4.9404    1.1012    0.3592 C   0  0  0  0  0  0  0  0  0  0  0  0
    4.5905    1.1984   -1.0583 N   0  0  0  0  0  0  0  0  0  0  0  0
    3.9973    0.1108   -1.4099 C   0  0  0  0  0  0  0  0  0  0  0  0
    2.9260   -0.0522   -2.8217 S   0  0  0  0  0  0  0  0  0  0  0  0
    1.0019   -1.5640   -2.0847 H   0  0  0  0  0  0  0  0  0  0  0  0
    1.2064   -3.0790   -0.0336 H   0  0  0  0  0  0  0  0  0  0  0  0
    2.6336   -2.8393    1.0210 H   0  0  0  0  0  0  0  0  0  0  0  0
    1.5115    1.0740    0.2352 H   0  0  0  0  0  0  0  0  0  0  0  0
    0.8284    1.7519    2.3497 H   0  0  0  0  0  0  0  0  0  0  0  0
   -0.9184    1.8147    1.8905 H   0  0  0  0  0  0  0  0  0  0  0  0
   -0.8034    4.0516    1.4607 H   0  0  0  0  0  0  0  0  0  0  0  0
    0.8900    4.0618    2.0981 H   0  0  0  0  0  0  0  0  0  0  0  0
    1.8196    3.9188   -0.0552 H   0  0  0  0  0  0  0  0  0  0  0  0
    0.2537    4.6987   -0.5343 H   0  0  0  0  0  0  0  0  0  0  0  0
   -0.7067    2.6209   -1.1767 H   0  0  0  0  0  0  0  0  0  0  0  0
    1.0205    2.3607   -1.6725 H   0  0  0  0  0  0  0  0  0  0  0  0
   -1.3236   -2.7853    0.4913 H   0  0  0  0  0  0  0  0  0  0  0  0
   -2.5642   -0.6043   -1.2282 H   0  0  0  0  0  0  0  0  0  0  0  0
   -3.6983    0.1277    0.6746 H   0  0  0  0  0  0  0  0  0  0  0  0
   -3.4364   -1.4197    1.5700 H   0  0  0  0  0  0  0  0  0  0  0  0
   -5.7766   -0.6490   -0.0195 H   0  0  0  0  0  0  0  0  0  0  0  0
   -5.4953   -2.1563    0.9346 H   0  0  0  0  0  0  0  0  0  0  0  0
   -5.4719   -3.2148   -1.1472 H   0  0  0  0  0  0  0  0  0  0  0  0
   -5.1523   -1.6550   -2.0131 H   0  0  0  0  0  0  0  0  0  0  0  0
   -3.1833   -3.5511   -0.6762 H   0  0  0  0  0  0  0  0  0  0  0  0
   -3.0325   -2.6755   -2.2588 H   0  0  0  0  0  0  0  0  0  0  0  0
    3.4193    0.0690    1.5495 H   0  0  0  0  0  0  0  0  0  0  0  0
    4.9730   -0.8743    1.3462 H   0  0  0  0  0  0  0  0  0  0  0  0
    4.5542    1.9915    0.9022 H   0  0  0  0  0  0  0  0  0  0  0  0
    6.0453    1.0340    0.4702 H   0  0  0  0  0  0  0  0  0  0  0  0
  1  2  2  0
  2  3  1  0
  3  4  1  0
  4  5  1  0
  5  6  2  0
  6  7  1  0
  7  8  1  0
  8  9  1  0
  9 10  1  0
 10 11  1  0
  5 12  1  0
 12 13  1  0
 13 14  1  0
 14 15  1  0
 15 16  1  0
 16 17  1  0
  2 18  1  0
 18 19  1  0
 19 20  1  0
 20 21  1  0
 21 22  2  0
 22 23  1  0
 23  1  1  0
 11  7  1  0
 17 13  1  0
 22 18  1  0
  1 24  1  0
  3 25  1  0
  3 26  1  0
  7 27  1  0
  8 28  1  0
  8 29  1  0
  9 30  1  0
  9 31  1  0
 10 32  1  0
 10 33  1  0
 11 34  1  0
 11 35  1  0
 12 36  1  0
 13 37  1  0
 14 38  1  0
 14 39  1  0
 15 40  1  0
 15 41  1  0
 16 42  1  0
 16 43  1  0
 17 44  1  0
 17 45  1  0
 19 46  1  0
 19 47  1  0
 20 48  1  0
 20 49  1  0
M  END
>  <IX_DELTA_E>  (355)
0.000

>  <IX_CONF_ID>  (355)
1

>  <IX_Q>  (355)
-0.0490
-0.0382
0.2082
-0.3710
0.6410
-0.6960
0.1660
-0.1600
-0.1600
-0.1600
-0.1600
-0.8191
0.2891
-0.1600
-0.1600
-0.1600
-0.1600
-0.5191
0.2091
0.0860
-0.6960
0.6410
-0.2420
0.1500
0.0800
0.0800
0.0800
0.0800
0.0800
0.0800
0.0800
0.0800
0.0800
0.0800
0.0800
0.4000
0.0800
0.0800
0.0800
0.0800
0.0800
0.0800
0.0800
0.0800
0.0800
0.0800
0.0800
0.0800
0.0800

>  <IX_ALOGP>  (355)
0.15510
0.15510
-0.20350
0.64820
-0.27830
0.18360
-0.20510
0.14410
0.14410
0.14410
0.14410
-0.70960
-0.20510
0.14410
0.14410
0.14410
0.14410
-0.31870
-0.20350
-0.20350
0.18360
-0.27830
0.64820
0.12300
0.12300
0.12300
0.12300
0.12300
0.12300
0.12300
0.12300
0.12300
0.12300
0.12300
0.12300
0.21420
0.12300
0.12300
0.12300
0.12300
0.12300
0.12300
0.12300
0.12300
0.12300
0.12300
0.12300
0.12300
0.12300

$$$$
621182
     RDKit          3D

 58 61  0  0  0  0  0  0  0  0999 V2000
    5.0814   -3.7584    1.0480 N   0  0  0  0  0  0  0  0  0  0  0  0
    4.4280   -3.3412   -0.1911 C   0  0  0  0  0  0  0  0  0  0  0  0
    3.5107   -2.1360    0.0501 C   0  0  0  0  0  0  0  0  0  0  0  0
    2.7678   -1.7432   -1.2347 C   0  0  0  0  0  0  0  0  0  0  0  0
    2.0159   -0.4095   -1.0958 C   0  0  0  0  0  0  0  0  0  0  0  0
    0.8964   -0.4694   -0.0363 C   0  0  0  0  0  0  0  0  0  0  0  0
   -0.1143    0.6151   -0.1819 N   0  0  0  0  0  0  0  0  0  0  0  0
   -1.2410    0.3822    0.7650 C   0  0  0  0  0  0  0  0  0  0  0  0
   -2.1754   -0.6851    0.2651 C   0  0  0  0  0  0  0  0  0  0  0  0
   -3.0538   -0.4788   -0.7555 N   0  0  0  0  0  0  0  0  0  0  0  0
   -3.6246   -1.6881   -0.8972 C   0  0  0  0  0  0  0  0  0  0  0  0
   -4.5972   -2.0651   -1.8178 C   0  0  0  0  0  0  0  0  0  0  0  0
   -5.0268   -3.4061   -1.8016 C   0  0  0  0  0  0  0  0  0  0  0  0
   -4.4704   -4.3270   -0.8847 C   0  0  0  0  0  0  0  0  0  0  0  0
   -3.4896   -3.9118    0.0359 C   0  0  0  0  0  0  0  0  0  0  0  0
   -3.0985   -2.5747   -0.0024 C   0  0  0  0  0  0  0  0  0  0  0  0
   -2.1811   -1.9539    0.7479 N   0  0  0  0  0  0  0  0  0  0  0  0
    0.4680    1.9922   -0.0524 C   0  0  0  0  0  0  0  0  0  0  0  0
    1.1033    2.2548    1.3411 C   0  0  0  0  0  0  0  0  0  0  0  0
    1.4311    3.7337    1.5279 C   0  0  0  0  0  0  0  0  0  0  0  0
    0.1504    4.5673    1.5014 C   0  0  0  0  0  0  0  0  0  0  0  0
   -0.6871    4.2701    0.2828 C   0  0  0  0  0  0  0  0  0  0  0  0
   -1.6439    5.2062   -0.1355 C   0  0  0  0  0  0  0  0  0  0  0  0
   -2.4050    4.9660   -1.2770 C   0  0  0  0  0  0  0  0  0  0  0  0
   -2.1999    3.7922   -2.0009 C   0  0  0  0  0  0  0  0  0  0  0  0
   -1.2858    2.8830   -1.5752 N   0  0  0  0  0  0  0  0  0  0  0  0
   -0.5416    3.0673   -0.4492 C   0  0  0  0  0  0  0  0  0  0  0  0
    4.3724   -4.1331    1.7169 H   0  0  0  0  0  0  0  0  0  0  0  0
    5.7736   -4.5091    0.8336 H   0  0  0  0  0  0  0  0  0  0  0  0
    5.5865   -2.9517    1.4835 H   0  0  0  0  0  0  0  0  0  0  0  0
    5.2031   -3.0677   -0.9405 H   0  0  0  0  0  0  0  0  0  0  0  0
    3.8315   -4.1898   -0.5959 H   0  0  0  0  0  0  0  0  0  0  0  0
    2.7760   -2.3943    0.8418 H   0  0  0  0  0  0  0  0  0  0  0  0
    4.1246   -1.2802    0.4032 H   0  0  0  0  0  0  0  0  0  0  0  0
    3.5010   -1.6387   -2.0622 H   0  0  0  0  0  0  0  0  0  0  0  0
    2.0593   -2.5489   -1.5206 H   0  0  0  0  0  0  0  0  0  0  0  0
    2.7474    0.3821   -0.8321 H   0  0  0  0  0  0  0  0  0  0  0  0
    1.5797   -0.1597   -2.0855 H   0  0  0  0  0  0  0  0  0  0  0  0
    1.3443   -0.4574    0.9792 H   0  0  0  0  0  0  0  0  0  0  0  0
    0.3915   -1.4528   -0.1464 H   0  0  0  0  0  0  0  0  0  0  0  0
   -0.4913    0.5347   -1.1564 H   0  0  0  0  0  0  0  0  0  0  0  0
   -1.8457    1.2991    0.9168 H   0  0  0  0  0  0  0  0  0  0  0  0
   -0.8595    0.0876    1.7682 H   0  0  0  0  0  0  0  0  0  0  0  0
   -5.0035   -1.3536   -2.5256 H   0  0  0  0  0  0  0  0  0  0  0  0
   -5.7790   -3.7365   -2.5050 H   0  0  0  0  0  0  0  0  0  0  0  0
   -4.8005   -5.3566   -0.8913 H   0  0  0  0  0  0  0  0  0  0  0  0
   -3.0491   -4.6095    0.7349 H   0  0  0  0  0  0  0  0  0  0  0  0
   -1.5816   -2.3571    1.5036 H   0  0  0  0  0  0  0  0  0  0  0  0
    1.2782    2.1106   -0.8031 H   0  0  0  0  0  0  0  0  0  0  0  0
    0.4233    1.9453    2.1596 H   0  0  0  0  0  0  0  0  0  0  0  0
    2.0471    1.6784    1.4397 H   0  0  0  0  0  0  0  0  0  0  0  0
    1.9398    3.8780    2.5046 H   0  0  0  0  0  0  0  0  0  0  0  0
    2.1239    4.0728    0.7263 H   0  0  0  0  0  0  0  0  0  0  0  0
    0.4371    5.6403    1.5098 H   0  0  0  0  0  0  0  0  0  0  0  0
   -0.4519    4.3653    2.4134 H   0  0  0  0  0  0  0  0  0  0  0  0
   -1.7881    6.1282    0.4155 H   0  0  0  0  0  0  0  0  0  0  0  0
   -3.1374    5.6897   -1.6084 H   0  0  0  0  0  0  0  0  0  0  0  0
   -2.7700    3.6026   -2.9005 H   0  0  0  0  0  0  0  0  0  0  0  0
  1  2  1  0
  2  3  1  0
  3  4  1  0
  4  5  1  0
  5  6  1  0
  6  7  1  0
  7  8  1  0
  8  9  1  0
  9 10  2  0
 10 11  1  0
 11 12  2  0
 12 13  1  0
 13 14  2  0
 14 15  1  0
 15 16  2  0
 16 17  1  0
  7 18  1  0
 18 19  1  0
 19 20  1  0
 20 21  1  0
 21 22  1  0
 22 23  2  0
 23 24  1  0
 24 25  2  0
 25 26  1  0
 26 27  2  0
 17  9  1  0
 27 18  1  0
 16 11  1  0
 27 22  1  0
  1 28  1  0
  1 29  1  0
  1 30  1  0
  2 31  1  0
  2 32  1  0
  3 33  1  0
  3 34  1  0
  4 35  1  0
  4 36  1  0
  5 37  1  0
  5 38  1  0
  6 39  1  0
  6 40  1  0
  7 41  1  0
  8 42  1  0
  8 43  1  0
 12 44  1  0
 13 45  1  0
 14 46  1  0
 15 47  1  0
 17 48  1  0
 18 49  1  0
 19 50  1  0
 19 51  1  0
 20 52  1  0
 20 53  1  0
 21 54  1  0
 21 55  1  0
 23 56  1  0
 24 57  1  0
 25 58  1  0
M  CHG  2   1   1   7   1
M  END
>  <IX_DELTA_E>  (375)
0.000

>  <IX_CONF_ID>  (375)
1

>  <IX_Q>  (375)
-0.8530
0.3430
-0.1600
-0.1600
-0.1600
0.3430
-0.9590
0.5230
0.0065
-0.5653
0.2272
-0.1500
-0.1500
-0.1500
-0.1500
-0.1516
0.0332
0.5665
-0.1600
-0.1600
-0.0165
-0.1435
-0.1500
-0.1500
0.1600
-0.6200
0.1665
0.4500
0.4500
0.4500
0.0800
0.0800
0.0800
0.0800
0.0800
0.0800
0.0800
0.0800
0.0800
0.0800
0.4500
0.0800
0.0800
0.1500
0.1500
0.1500
0.1500
0.2700
0.0800
0.0800
0.0800
0.0800
0.0800
0.0800
0.0800
0.1500
0.1500
0.1500

>  <IX_ALOGP>  (375)
-1.95000
-0.20350
0.14410
0.14410
0.14410
-0.20350
-1.95000
-0.05160
0.13600
-0.32390
0.29550
0.15810
0.15810
0.15810
0.15810
0.29550
-0.32390
0.11930
0.14410
0.14410
-0.05160
0.13600
0.15810
0.15810
0.15810
-0.32390
0.13600
0.21420
0.21420
0.21420
0.12300
0.12300
0.12300
0.12300
0.12300
0.12300
0.12300
0.12300
0.12300
0.12300
0.21420
0.12300
0.12300
0.12300
0.12300
0.12300
0.12300
0.21420
0.12300
0.12300
0.12300
0.12300
0.12300
0.12300
0.12300
0.12300
0.12300
0.12300

$$$$
454220
     RDKit          3D

 58 61  0  0  0  0  0  0  0  0999 V2000
   -0.0419   -1.8592   -2.1339 C   0  0  0  0  0  0  0  0  0  0  0  0
   -0.6077   -1.1363   -0.9858 N   0  0  0  0  0  0  0  0  0  0  0  0
   -0.2691    0.2486   -0.7910 C   0  0  0  0  0  0  0  0  0  0  0  0
   -1.2067    1.0982   -0.4754 N   0  0  0  0  0  0  0  0  0  0  0  0
   -1.0522    2.5439   -0.2985 C   0  0  0  0  0  0  0  0  0  0  0  0
   -0.4686    2.8690    1.0904 C   0  0  0  0  0  0  0  0  0  0  0  0
   -0.3973    4.3837    1.3249 C   0  0  0  0  0  0  0  0  0  0  0  0
   -1.7714    5.0373    1.1447 C   0  0  0  0  0  0  0  0  0  0  0  0
   -2.3534    4.7177   -0.2365 C   0  0  0  0  0  0  0  0  0  0  0  0
   -2.4311    3.2039   -0.4609 C   0  0  0  0  0  0  0  0  0  0  0  0
    1.4494    0.7624   -0.9882 S   0  0  0  0  0  0  0  0  0  0  0  0
    1.9647   -0.0229    0.5775 C   0  0  0  0  0  0  0  0  0  0  0  0
    3.4058    0.2733    0.8592 C   0  0  0  0  0  0  0  0  0  0  0  0
    3.8744    1.5022    1.0871 C   0  0  0  0  0  0  0  0  0  0  0  0
    5.6512    1.5907    1.3955 S   0  0  0  0  0  0  0  0  0  0  0  0
    5.6618   -0.1443    0.9844 C   0  0  0  0  0  0  0  0  0  0  0  0
    6.5683   -0.7068    0.2647 N   0  0  0  0  0  0  0  0  0  0  0  0
    6.0248   -1.9366   -0.3035 C   0  0  0  0  0  0  0  0  0  0  0  0
    4.5190   -1.8906    0.0176 C   0  0  0  0  0  0  0  0  0  0  0  0
    4.4006   -0.7416    0.8986 N   0  0  0  0  0  0  0  0  0  0  0  0
   -1.5592   -1.7881   -0.0642 C   0  0  0  0  0  0  0  0  0  0  0  0
   -1.0850   -3.2002    0.3412 C   0  0  0  0  0  0  0  0  0  0  0  0
   -2.0818   -3.8576    1.3030 C   0  0  0  0  0  0  0  0  0  0  0  0
   -3.4853   -3.9087    0.6848 C   0  0  0  0  0  0  0  0  0  0  0  0
   -3.9625   -2.5083    0.2791 C   0  0  0  0  0  0  0  0  0  0  0  0
   -2.9686   -1.8413   -0.6826 C   0  0  0  0  0  0  0  0  0  0  0  0
    0.7053   -2.6000   -1.7812 H   0  0  0  0  0  0  0  0  0  0  0  0
    0.4633   -1.1667   -2.8407 H   0  0  0  0  0  0  0  0  0  0  0  0
   -0.8451   -2.3808   -2.6936 H   0  0  0  0  0  0  0  0  0  0  0  0
   -0.3817    2.9452   -1.0911 H   0  0  0  0  0  0  0  0  0  0  0  0
    0.5570    2.4657    1.1754 H   0  0  0  0  0  0  0  0  0  0  0  0
   -1.0901    2.3975    1.8827 H   0  0  0  0  0  0  0  0  0  0  0  0
    0.3284    4.8377    0.6150 H   0  0  0  0  0  0  0  0  0  0  0  0
   -0.0331    4.5772    2.3574 H   0  0  0  0  0  0  0  0  0  0  0  0
   -1.6676    6.1388    1.2520 H   0  0  0  0  0  0  0  0  0  0  0  0
   -2.4637    4.6748    1.9363 H   0  0  0  0  0  0  0  0  0  0  0  0
   -3.3719    5.1546   -0.3180 H   0  0  0  0  0  0  0  0  0  0  0  0
   -1.7191    5.1805   -1.0254 H   0  0  0  0  0  0  0  0  0  0  0  0
   -2.8132    3.0123   -1.4863 H   0  0  0  0  0  0  0  0  0  0  0  0
   -3.1526    2.7594    0.2614 H   0  0  0  0  0  0  0  0  0  0  0  0
    1.3441    0.3264    1.4287 H   0  0  0  0  0  0  0  0  0  0  0  0
    1.8203   -1.1220    0.4866 H   0  0  0  0  0  0  0  0  0  0  0  0
    3.2487    2.3846    1.0586 H   0  0  0  0  0  0  0  0  0  0  0  0
    6.5043   -2.8157    0.1803 H   0  0  0  0  0  0  0  0  0  0  0  0
    6.2041   -1.9609   -1.3990 H   0  0  0  0  0  0  0  0  0  0  0  0
    4.1946   -2.8121    0.5486 H   0  0  0  0  0  0  0  0  0  0  0  0
    3.9165   -1.7408   -0.9064 H   0  0  0  0  0  0  0  0  0  0  0  0
   -1.6183   -1.1872    0.8724 H   0  0  0  0  0  0  0  0  0  0  0  0
   -0.0908   -3.1324    0.8333 H   0  0  0  0  0  0  0  0  0  0  0  0
   -0.9835   -3.8495   -0.5533 H   0  0  0  0  0  0  0  0  0  0  0  0
   -1.7457   -4.8930    1.5305 H   0  0  0  0  0  0  0  0  0  0  0  0
   -2.1111   -3.2889    2.2577 H   0  0  0  0  0  0  0  0  0  0  0  0
   -4.1964   -4.3399    1.4219 H   0  0  0  0  0  0  0  0  0  0  0  0
   -3.4751   -4.5707   -0.2090 H   0  0  0  0  0  0  0  0  0  0  0  0
   -4.0812   -1.8775    1.1858 H   0  0  0  0  0  0  0  0  0  0  0  0
   -4.9558   -2.5861   -0.2133 H   0  0  0  0  0  0  0  0  0  0  0  0
   -3.3162   -0.8089   -0.9043 H   0  0  0  0  0  0  0  0  0  0  0  0
   -2.9528   -2.4101   -1.6361 H   0  0  0  0  0  0  0  0  0  0  0  0
  1  2  1  0
  2  3  1  0
  3  4  2  0
  4  5  1  0
  5  6  1  0
  6  7  1  0
  7  8  1  0
  8  9  1  0
  9 10  1  0
  3 11  1  0
 11 12  1  0
 12 13  1  0
 13 14  2  0
 14 15  1  0
 15 16  1  0
 16 17  2  0
 17 18  1  0
 18 19  1  0
 19 20  1  0
  2 21  1  0
 21 22  1  0
 22 23  1  0
 23 24  1  0
 24 25  1  0
 25 26  1  0
 10  5  1  0
 20 13  1  0
 26 21  1  0
 20 16  1  0
  1 27  1  0
  1 28  1  0
  1 29  1  0
  5 30  1  0
  6 31  1  0
  6 32  1  0
  7 33  1  0
  7 34  1  0
  8 35  1  0
  8 36  1  0
  9 37  1  0
  9 38  1  0
 10 39  1  0
 10 40  1  0
 12 41  1  0
 12 42  1  0
 14 43  1  0
 18 44  1  0
 18 45  1  0
 19 46  1  0
 19 47  1  0
 21 48  1  0
 22 49  1  0
 22 50  1  0
 23 51  1  0
 23 52  1  0
 24 53  1  0
 24 54  1  0
 25 55  1  0
 25 56  1  0
 26 57  1  0
 26 58  1  0
M  END
>  <IX_DELTA_E>  (399)
0.000

>  <IX_CONF_ID>  (399)
1

>  <IX_Q>  (399)
0.1291
-0.7882
0.6410
-0.6960
0.1660
-0.1600
-0.1600
-0.1600
-0.1600
-0.1600
-0.3710
0.2082
-0.0382
-0.0490
-0.2420
0.6410
-0.6960
0.0860
0.2091
-0.5191
0.2891
-0.1600
-0.1600
-0.1600
-0.1600
-0.1600
0.0800
0.0800
0.0800
0.0800
0.0800
0.0800
0.0800
0.0800
0.0800
0.0800
0.0800
0.0800
0.0800
0.0800
0.0800
0.0800
0.1500
0.0800
0.0800
0.0800
0.0800
0.0800
0.0800
0.0800
0.0800
0.0800
0.0800
0.0800
0.0800
0.0800
0.0800
0.0800

>  <IX_ALOGP>  (399)
-0.20350
-0.31870
-0.27830
0.18360
-0.20510
0.14410
0.14410
0.14410
0.14410
0.14410
0.64820
-0.20350
0.15510
0.15510
0.64820
-0.27830
0.18360
-0.20350
-0.20350
-0.31870
-0.20510
0.14410
0.14410
0.14410
0.14410
0.14410
0.12300
0.12300
0.12300
0.12300
0.12300
0.12300
0.12300
0.12300
0.12300
0.12300
0.12300
0.12300
0.12300
0.12300
0.12300
0.12300
0.12300
0.12300
0.12300
0.12300
0.12300
0.12300
0.12300
0.12300
0.12300
0.12300
0.12300
0.12300
0.12300
0.12300
0.12300
0.12300

$$$$
621106
     RDKit          3D

 51 54  0  0  0  0  0  0  0  0999 V2000
    1.2837    5.9869    0.4417 N   0  0  0  0  0  0  0  0  0  0  0  0
    1.6560    4.5823    0.5971 C   0  0  0  0  0  0  0  0  0  0  0  0
    0.4811    3.7155    0.4488 C   0  0  0  0  0  0  0  0  0  0  0  0
   -0.4687    2.9821    0.3349 C   0  0  0  0  0  0  0  0  0  0  0  0
   -1.6124    2.0638    0.2087 C   0  0  0  0  0  0  0  0  0  0  0  0
   -1.1642    0.6711   -0.0531 N   0  0  0  0  0  0  0  0  0  0  0  0
   -0.4534    0.0824    1.1282 C   0  0  0  0  0  0  0  0  0  0  0  0
    1.0013   -0.1571    0.8351 C   0  0  0  0  0  0  0  0  0  0  0  0
    1.8894    0.8506    0.6258 N   0  0  0  0  0  0  0  0  0  0  0  0
    3.0292    0.1901    0.3571 C   0  0  0  0  0  0  0  0  0  0  0  0
    4.2758    0.7327    0.0511 C   0  0  0  0  0  0  0  0  0  0  0  0
    5.3294   -0.1620   -0.2152 C   0  0  0  0  0  0  0  0  0  0  0  0
    5.1102   -1.5595   -0.1709 C   0  0  0  0  0  0  0  0  0  0  0  0
    3.8354   -2.0732    0.1380 C   0  0  0  0  0  0  0  0  0  0  0  0
    2.8216   -1.1559    0.4040 C   0  0  0  0  0  0  0  0  0  0  0  0
    1.5410   -1.3952    0.7092 N   0  0  0  0  0  0  0  0  0  0  0  0
   -2.2957   -0.1831   -0.5339 C   0  0  0  0  0  0  0  0  0  0  0  0
   -3.4672   -0.2513    0.4883 C   0  0  0  0  0  0  0  0  0  0  0  0
   -4.4430   -1.3738    0.1445 C   0  0  0  0  0  0  0  0  0  0  0  0
   -3.7432   -2.7310    0.2081 C   0  0  0  0  0  0  0  0  0  0  0  0
   -2.4657   -2.7489   -0.5909 C   0  0  0  0  0  0  0  0  0  0  0  0
   -1.9153   -3.9809   -0.9731 C   0  0  0  0  0  0  0  0  0  0  0  0
   -0.7592   -4.0251   -1.7491 C   0  0  0  0  0  0  0  0  0  0  0  0
   -0.1593   -2.8300   -2.1413 C   0  0  0  0  0  0  0  0  0  0  0  0
   -0.6860   -1.6414   -1.7475 N   0  0  0  0  0  0  0  0  0  0  0  0
   -1.8007   -1.5595   -0.9669 C   0  0  0  0  0  0  0  0  0  0  0  0
    0.9111    6.1581   -0.5216 H   0  0  0  0  0  0  0  0  0  0  0  0
    2.1320    6.5811    0.5904 H   0  0  0  0  0  0  0  0  0  0  0  0
    0.5598    6.2496    1.1524 H   0  0  0  0  0  0  0  0  0  0  0  0
    2.0977    4.4165    1.6041 H   0  0  0  0  0  0  0  0  0  0  0  0
    2.4137    4.3074   -0.1678 H   0  0  0  0  0  0  0  0  0  0  0  0
   -2.2137    2.1254    1.1411 H   0  0  0  0  0  0  0  0  0  0  0  0
   -2.2430    2.4348   -0.6302 H   0  0  0  0  0  0  0  0  0  0  0  0
   -0.5014    0.7427   -0.8639 H   0  0  0  0  0  0  0  0  0  0  0  0
   -0.8912   -0.8925    1.4368 H   0  0  0  0  0  0  0  0  0  0  0  0
   -0.5226    0.7350    2.0262 H   0  0  0  0  0  0  0  0  0  0  0  0
    4.4276    1.8040    0.0111 H   0  0  0  0  0  0  0  0  0  0  0  0
    6.3118    0.2239   -0.4622 H   0  0  0  0  0  0  0  0  0  0  0  0
    5.9276   -2.2359   -0.3775 H   0  0  0  0  0  0  0  0  0  0  0  0
    3.6512   -3.1395    0.1690 H   0  0  0  0  0  0  0  0  0  0  0  0
    1.0638   -2.3211    0.7981 H   0  0  0  0  0  0  0  0  0  0  0  0
   -2.7102    0.2715   -1.4639 H   0  0  0  0  0  0  0  0  0  0  0  0
   -3.0977   -0.4056    1.5237 H   0  0  0  0  0  0  0  0  0  0  0  0
   -4.0313    0.7074    0.4752 H   0  0  0  0  0  0  0  0  0  0  0  0
   -5.2880   -1.3634    0.8675 H   0  0  0  0  0  0  0  0  0  0  0  0
   -4.8617   -1.2097   -0.8734 H   0  0  0  0  0  0  0  0  0  0  0  0
   -4.4443   -3.4962   -0.1926 H   0  0  0  0  0  0  0  0  0  0  0  0
   -3.5155   -2.9945    1.2641 H   0  0  0  0  0  0  0  0  0  0  0  0
   -2.3901   -4.9078   -0.6784 H   0  0  0  0  0  0  0  0  0  0  0  0
   -0.3348   -4.9769   -2.0501 H   0  0  0  0  0  0  0  0  0  0  0  0
    0.7290   -2.8436   -2.7570 H   0  0  0  0  0  0  0  0  0  0  0  0
  1  2  1  0
  2  3  1  0
  3  4  3  0
  4  5  1  0
  5  6  1  0
  6  7  1  0
  7  8  1  0
  8  9  2  0
  9 10  1  0
 10 11  2  0
 11 12  1  0
 12 13  2  0
 13 14  1  0
 14 15  2  0
 15 16  1  0
  6 17  1  0
 17 18  1  0
 18 19  1  0
 19 20  1  0
 20 21  1  0
 21 22  2  0
 22 23  1  0
 23 24  2  0
 24 25  1  0
 25 26  2  0
 16  8  1  0
 26 17  1  0
 15 10  1  0
 26 21  1  0
  1 27  1  0
  1 28  1  0
  1 29  1  0
  2 30  1  0
  2 31  1  0
  5 32  1  0
  5 33  1  0
  6 34  1  0
  7 35  1  0
  7 36  1  0
 11 37  1  0
 12 38  1  0
 13 39  1  0
 14 40  1  0
 16 41  1  0
 17 42  1  0
 18 43  1  0
 18 44  1  0
 19 45  1  0
 19 46  1  0
 20 47  1  0
 20 48  1  0
 22 49  1  0
 23 50  1  0
 24 51  1  0
M  CHG  2   1   1   6   1
M  END
>  <IX_DELTA_E>  (402)
0.000

>  <IX_CONF_ID>  (402)
1

>  <IX_Q>  (402)
-0.8530
0.5430
-0.2000
-0.2000
0.5430
-0.9590
0.5230
0.0065
-0.5653
0.2272
-0.1500
-0.1500
-0.1500
-0.1500
-0.1516
0.0332
0.5665
-0.1600
-0.1600
-0.0165
-0.1435
-0.1500
-0.1500
0.1600
-0.6200
0.1665
0.4500
0.4500
0.4500
0.0800
0.0800
0.0800
0.0800
0.4500
0.0800
0.0800
0.1500
0.1500
0.1500
0.1500
0.2700
0.0800
0.0800
0.0800
0.0800
0.0800
0.0800
0.0800
0.1500
0.1500
0.1500

>  <IX_ALOGP>  (402)
-1.95000
-0.20350
0.00170
0.00170
-0.20350
-1.95000
-0.05160
0.13600
-0.32390
0.29550
0.15810
0.15810
0.15810
0.15810
0.29550
-0.32390
0.11930
0.14410
0.14410
-0.05160
0.13600
0.15810
0.15810
0.15810
-0.32390
0.13600
0.21420
0.21420
0.21420
0.12300
0.12300
0.12300
0.12300
0.21420
0.12300
0.12300
0.12300
0.12300
0.12300
0.12300
0.21420
0.12300
0.12300
0.12300
0.12300
0.12300
0.12300
0.12300
0.12300
0.12300
0.12300

$$$$
